<?xml version="1.0" encoding="UTF-8"?>

<!-- generated on 2024-03-17 18:50:03 by Eclipse SUMO duarouter Version 1.10.0
<configuration xmlns:xsi="http://www.w3.org/2001/XMLSchema-instance" xsi:noNamespaceSchemaLocation="http://sumo.dlr.de/xsd/duarouterConfiguration.xsd">

    <input>
        <net-file value="./map.net.xml"/>
        <route-files value="/tmp/tmpp2i4qcwv/trips.trips.xml"/>
    </input>

    <output>
        <output-file value="./traffic/108.rou.xml"/>
        <alternatives-output value="./traffic/108.rou.alt.xml"/>
    </output>

    <processing>
        <unsorted-input value="true"/>
        <repair value="true"/>
    </processing>

    <report>
        <error-log value="/home/kenzhi/.smarts/_duarouter_routing/traffic/108.log"/>
        <no-step-log value="true"/>
    </report>

    <random_number>
        <seed value="42"/>
    </random_number>

</configuration>
-->

<routes xmlns:xsi="http://www.w3.org/2001/XMLSchema-instance" xsi:noNamespaceSchemaLocation="http://sumo.dlr.de/xsd/routes_file.xsd">
    <vType id="actor-car-9060248981651613779" minGap="2.50" maxSpeed="13.89" speedFactor="normc(0.82,0.00)" vClass="passenger" accel="2.6" decel="4.5" sigma="0.5"/>
    <vehicle id="car-flow-route-edge-west-WE_0_0-edge-south-NS_0_max--5844143135098092109--5586913223005169377--0-0.0" type="actor-car-9060248981651613779" depart="0.00" departLane="0" departPos="0.00" departSpeed="max" arrivalLane="0" arrivalPos="max">
        <route edges="edge-west-WE edge-west-WS edge-south-NS"/>
    </vehicle>
    <vType id="actor-car--8265006805252636981" minGap="2.50" maxSpeed="13.89" speedFactor="normc(0.51,0.00)" vClass="passenger" lcCooperative="0.05" lcPushy="0.05" lcImpatience="0.05" accel="2.6" decel="4.5" sigma="0.5"/>
    <vehicle id="car-flow-route-edge-west-WE_0_0-edge-south-NS_0_max--5844143135098092109--5586913223005169377--0-1.0" type="actor-car--8265006805252636981" depart="0.00" departLane="0" departPos="0.00" departSpeed="max" arrivalLane="0" arrivalPos="max">
        <route edges="edge-west-WE edge-west-WS edge-south-NS"/>
    </vehicle>
    <vehicle id="car-flow-route-edge-west-WE_0_0-edge-west-EW_0_max-7080099210646399451--5586913223005169377--1-0.0" type="actor-car-9060248981651613779" depart="0.00" departLane="0" departPos="0.00" departSpeed="max" arrivalLane="0" arrivalPos="max">
        <route edges="edge-west-WE edge-west-WS edge-south-SE edge-east-EN edge-north-NW edge-west-EW"/>
    </vehicle>
    <vehicle id="car-flow-route-edge-west-WE_0_0-edge-west-EW_0_max-7080099210646399451--5586913223005169377--1-1.0" type="actor-car--8265006805252636981" depart="0.00" departLane="0" departPos="0.00" departSpeed="max" arrivalLane="0" arrivalPos="max">
        <route edges="edge-west-WE edge-west-WS edge-south-SE edge-east-EN edge-north-NW edge-west-EW"/>
    </vehicle>
    <vehicle id="car-flow-route-edge-west-WE_0_0-edge-south-NS_0_max--5844143135098092109--5586913223005169377--0-1.1" type="actor-car--8265006805252636981" depart="54.00" departLane="0" departPos="0.00" departSpeed="max" arrivalLane="0" arrivalPos="max">
        <route edges="edge-west-WE edge-west-WS edge-south-NS"/>
    </vehicle>
    <vehicle id="car-flow-route-edge-west-WE_0_0-edge-west-EW_0_max-7080099210646399451--5586913223005169377--1-1.1" type="actor-car--8265006805252636981" depart="54.00" departLane="0" departPos="0.00" departSpeed="max" arrivalLane="0" arrivalPos="max">
        <route edges="edge-west-WE edge-west-WS edge-south-SE edge-east-EN edge-north-NW edge-west-EW"/>
    </vehicle>
    <vehicle id="car-flow-route-edge-west-WE_0_0-edge-south-NS_0_max--5844143135098092109--5586913223005169377--0-0.1" type="actor-car-9060248981651613779" depart="108.00" departLane="0" departPos="0.00" departSpeed="max" arrivalLane="0" arrivalPos="max">
        <route edges="edge-west-WE edge-west-WS edge-south-NS"/>
    </vehicle>
    <vehicle id="car-flow-route-edge-west-WE_0_0-edge-south-NS_0_max--5844143135098092109--5586913223005169377--0-1.2" type="actor-car--8265006805252636981" depart="108.00" departLane="0" departPos="0.00" departSpeed="max" arrivalLane="0" arrivalPos="max">
        <route edges="edge-west-WE edge-west-WS edge-south-NS"/>
    </vehicle>
    <vehicle id="car-flow-route-edge-west-WE_0_0-edge-west-EW_0_max-7080099210646399451--5586913223005169377--1-0.1" type="actor-car-9060248981651613779" depart="108.00" departLane="0" departPos="0.00" departSpeed="max" arrivalLane="0" arrivalPos="max">
        <route edges="edge-west-WE edge-west-WS edge-south-SE edge-east-EN edge-north-NW edge-west-EW"/>
    </vehicle>
    <vehicle id="car-flow-route-edge-west-WE_0_0-edge-west-EW_0_max-7080099210646399451--5586913223005169377--1-1.2" type="actor-car--8265006805252636981" depart="108.00" departLane="0" departPos="0.00" departSpeed="max" arrivalLane="0" arrivalPos="max">
        <route edges="edge-west-WE edge-west-WS edge-south-SE edge-east-EN edge-north-NW edge-west-EW"/>
    </vehicle>
    <vehicle id="car-flow-route-edge-west-WE_0_0-edge-south-NS_0_max--5844143135098092109--5586913223005169377--0-1.3" type="actor-car--8265006805252636981" depart="162.00" departLane="0" departPos="0.00" departSpeed="max" arrivalLane="0" arrivalPos="max">
        <route edges="edge-west-WE edge-west-WS edge-south-NS"/>
    </vehicle>
    <vehicle id="car-flow-route-edge-west-WE_0_0-edge-west-EW_0_max-7080099210646399451--5586913223005169377--1-1.3" type="actor-car--8265006805252636981" depart="162.00" departLane="0" departPos="0.00" departSpeed="max" arrivalLane="0" arrivalPos="max">
        <route edges="edge-west-WE edge-west-WS edge-south-SE edge-east-EN edge-north-NW edge-west-EW"/>
    </vehicle>
    <vehicle id="car-flow-route-edge-west-WE_0_0-edge-south-NS_0_max--5844143135098092109--5586913223005169377--0-0.2" type="actor-car-9060248981651613779" depart="216.00" departLane="0" departPos="0.00" departSpeed="max" arrivalLane="0" arrivalPos="max">
        <route edges="edge-west-WE edge-west-WS edge-south-NS"/>
    </vehicle>
    <vehicle id="car-flow-route-edge-west-WE_0_0-edge-south-NS_0_max--5844143135098092109--5586913223005169377--0-1.4" type="actor-car--8265006805252636981" depart="216.00" departLane="0" departPos="0.00" departSpeed="max" arrivalLane="0" arrivalPos="max">
        <route edges="edge-west-WE edge-west-WS edge-south-NS"/>
    </vehicle>
    <vehicle id="car-flow-route-edge-west-WE_0_0-edge-west-EW_0_max-7080099210646399451--5586913223005169377--1-0.2" type="actor-car-9060248981651613779" depart="216.00" departLane="0" departPos="0.00" departSpeed="max" arrivalLane="0" arrivalPos="max">
        <route edges="edge-west-WE edge-west-WS edge-south-SE edge-east-EN edge-north-NW edge-west-EW"/>
    </vehicle>
    <vehicle id="car-flow-route-edge-west-WE_0_0-edge-west-EW_0_max-7080099210646399451--5586913223005169377--1-1.4" type="actor-car--8265006805252636981" depart="216.00" departLane="0" departPos="0.00" departSpeed="max" arrivalLane="0" arrivalPos="max">
        <route edges="edge-west-WE edge-west-WS edge-south-SE edge-east-EN edge-north-NW edge-west-EW"/>
    </vehicle>
    <vehicle id="car-flow-route-edge-west-WE_0_0-edge-south-NS_0_max--5844143135098092109--5586913223005169377--0-1.5" type="actor-car--8265006805252636981" depart="270.00" departLane="0" departPos="0.00" departSpeed="max" arrivalLane="0" arrivalPos="max">
        <route edges="edge-west-WE edge-west-WS edge-south-NS"/>
    </vehicle>
    <vehicle id="car-flow-route-edge-west-WE_0_0-edge-west-EW_0_max-7080099210646399451--5586913223005169377--1-1.5" type="actor-car--8265006805252636981" depart="270.00" departLane="0" departPos="0.00" departSpeed="max" arrivalLane="0" arrivalPos="max">
        <route edges="edge-west-WE edge-west-WS edge-south-SE edge-east-EN edge-north-NW edge-west-EW"/>
    </vehicle>
    <vehicle id="car-flow-route-edge-west-WE_0_0-edge-south-NS_0_max--5844143135098092109--5586913223005169377--0-0.3" type="actor-car-9060248981651613779" depart="324.00" departLane="0" departPos="0.00" departSpeed="max" arrivalLane="0" arrivalPos="max">
        <route edges="edge-west-WE edge-west-WS edge-south-NS"/>
    </vehicle>
    <vehicle id="car-flow-route-edge-west-WE_0_0-edge-south-NS_0_max--5844143135098092109--5586913223005169377--0-1.6" type="actor-car--8265006805252636981" depart="324.00" departLane="0" departPos="0.00" departSpeed="max" arrivalLane="0" arrivalPos="max">
        <route edges="edge-west-WE edge-west-WS edge-south-NS"/>
    </vehicle>
    <vehicle id="car-flow-route-edge-west-WE_0_0-edge-west-EW_0_max-7080099210646399451--5586913223005169377--1-0.3" type="actor-car-9060248981651613779" depart="324.00" departLane="0" departPos="0.00" departSpeed="max" arrivalLane="0" arrivalPos="max">
        <route edges="edge-west-WE edge-west-WS edge-south-SE edge-east-EN edge-north-NW edge-west-EW"/>
    </vehicle>
    <vehicle id="car-flow-route-edge-west-WE_0_0-edge-west-EW_0_max-7080099210646399451--5586913223005169377--1-1.6" type="actor-car--8265006805252636981" depart="324.00" departLane="0" departPos="0.00" departSpeed="max" arrivalLane="0" arrivalPos="max">
        <route edges="edge-west-WE edge-west-WS edge-south-SE edge-east-EN edge-north-NW edge-west-EW"/>
    </vehicle>
    <vehicle id="car-flow-route-edge-west-WE_0_0-edge-south-NS_0_max--5844143135098092109--5586913223005169377--0-1.7" type="actor-car--8265006805252636981" depart="378.00" departLane="0" departPos="0.00" departSpeed="max" arrivalLane="0" arrivalPos="max">
        <route edges="edge-west-WE edge-west-WS edge-south-NS"/>
    </vehicle>
    <vehicle id="car-flow-route-edge-west-WE_0_0-edge-west-EW_0_max-7080099210646399451--5586913223005169377--1-1.7" type="actor-car--8265006805252636981" depart="378.00" departLane="0" departPos="0.00" departSpeed="max" arrivalLane="0" arrivalPos="max">
        <route edges="edge-west-WE edge-west-WS edge-south-SE edge-east-EN edge-north-NW edge-west-EW"/>
    </vehicle>
    <vehicle id="car-flow-route-edge-west-WE_0_0-edge-south-NS_0_max--5844143135098092109--5586913223005169377--0-0.4" type="actor-car-9060248981651613779" depart="432.00" departLane="0" departPos="0.00" departSpeed="max" arrivalLane="0" arrivalPos="max">
        <route edges="edge-west-WE edge-west-WS edge-south-NS"/>
    </vehicle>
    <vehicle id="car-flow-route-edge-west-WE_0_0-edge-south-NS_0_max--5844143135098092109--5586913223005169377--0-1.8" type="actor-car--8265006805252636981" depart="432.00" departLane="0" departPos="0.00" departSpeed="max" arrivalLane="0" arrivalPos="max">
        <route edges="edge-west-WE edge-west-WS edge-south-NS"/>
    </vehicle>
    <vehicle id="car-flow-route-edge-west-WE_0_0-edge-west-EW_0_max-7080099210646399451--5586913223005169377--1-0.4" type="actor-car-9060248981651613779" depart="432.00" departLane="0" departPos="0.00" departSpeed="max" arrivalLane="0" arrivalPos="max">
        <route edges="edge-west-WE edge-west-WS edge-south-SE edge-east-EN edge-north-NW edge-west-EW"/>
    </vehicle>
    <vehicle id="car-flow-route-edge-west-WE_0_0-edge-west-EW_0_max-7080099210646399451--5586913223005169377--1-1.8" type="actor-car--8265006805252636981" depart="432.00" departLane="0" departPos="0.00" departSpeed="max" arrivalLane="0" arrivalPos="max">
        <route edges="edge-west-WE edge-west-WS edge-south-SE edge-east-EN edge-north-NW edge-west-EW"/>
    </vehicle>
    <vehicle id="car-flow-route-edge-west-WE_0_0-edge-south-NS_0_max--5844143135098092109--5586913223005169377--0-1.9" type="actor-car--8265006805252636981" depart="486.00" departLane="0" departPos="0.00" departSpeed="max" arrivalLane="0" arrivalPos="max">
        <route edges="edge-west-WE edge-west-WS edge-south-NS"/>
    </vehicle>
    <vehicle id="car-flow-route-edge-west-WE_0_0-edge-west-EW_0_max-7080099210646399451--5586913223005169377--1-1.9" type="actor-car--8265006805252636981" depart="486.00" departLane="0" departPos="0.00" departSpeed="max" arrivalLane="0" arrivalPos="max">
        <route edges="edge-west-WE edge-west-WS edge-south-SE edge-east-EN edge-north-NW edge-west-EW"/>
    </vehicle>
    <vehicle id="car-flow-route-edge-west-WE_0_0-edge-south-NS_0_max--5844143135098092109--5586913223005169377--0-0.5" type="actor-car-9060248981651613779" depart="540.00" departLane="0" departPos="0.00" departSpeed="max" arrivalLane="0" arrivalPos="max">
        <route edges="edge-west-WE edge-west-WS edge-south-NS"/>
    </vehicle>
    <vehicle id="car-flow-route-edge-west-WE_0_0-edge-south-NS_0_max--5844143135098092109--5586913223005169377--0-1.10" type="actor-car--8265006805252636981" depart="540.00" departLane="0" departPos="0.00" departSpeed="max" arrivalLane="0" arrivalPos="max">
        <route edges="edge-west-WE edge-west-WS edge-south-NS"/>
    </vehicle>
    <vehicle id="car-flow-route-edge-west-WE_0_0-edge-west-EW_0_max-7080099210646399451--5586913223005169377--1-0.5" type="actor-car-9060248981651613779" depart="540.00" departLane="0" departPos="0.00" departSpeed="max" arrivalLane="0" arrivalPos="max">
        <route edges="edge-west-WE edge-west-WS edge-south-SE edge-east-EN edge-north-NW edge-west-EW"/>
    </vehicle>
    <vehicle id="car-flow-route-edge-west-WE_0_0-edge-west-EW_0_max-7080099210646399451--5586913223005169377--1-1.10" type="actor-car--8265006805252636981" depart="540.00" departLane="0" departPos="0.00" departSpeed="max" arrivalLane="0" arrivalPos="max">
        <route edges="edge-west-WE edge-west-WS edge-south-SE edge-east-EN edge-north-NW edge-west-EW"/>
    </vehicle>
    <vehicle id="car-flow-route-edge-west-WE_0_0-edge-south-NS_0_max--5844143135098092109--5586913223005169377--0-1.11" type="actor-car--8265006805252636981" depart="594.00" departLane="0" departPos="0.00" departSpeed="max" arrivalLane="0" arrivalPos="max">
        <route edges="edge-west-WE edge-west-WS edge-south-NS"/>
    </vehicle>
    <vehicle id="car-flow-route-edge-west-WE_0_0-edge-west-EW_0_max-7080099210646399451--5586913223005169377--1-1.11" type="actor-car--8265006805252636981" depart="594.00" departLane="0" departPos="0.00" departSpeed="max" arrivalLane="0" arrivalPos="max">
        <route edges="edge-west-WE edge-west-WS edge-south-SE edge-east-EN edge-north-NW edge-west-EW"/>
    </vehicle>
    <vehicle id="car-flow-route-edge-west-WE_0_0-edge-south-NS_0_max--5844143135098092109--5586913223005169377--0-0.6" type="actor-car-9060248981651613779" depart="648.00" departLane="0" departPos="0.00" departSpeed="max" arrivalLane="0" arrivalPos="max">
        <route edges="edge-west-WE edge-west-WS edge-south-NS"/>
    </vehicle>
    <vehicle id="car-flow-route-edge-west-WE_0_0-edge-south-NS_0_max--5844143135098092109--5586913223005169377--0-1.12" type="actor-car--8265006805252636981" depart="648.00" departLane="0" departPos="0.00" departSpeed="max" arrivalLane="0" arrivalPos="max">
        <route edges="edge-west-WE edge-west-WS edge-south-NS"/>
    </vehicle>
    <vehicle id="car-flow-route-edge-west-WE_0_0-edge-west-EW_0_max-7080099210646399451--5586913223005169377--1-0.6" type="actor-car-9060248981651613779" depart="648.00" departLane="0" departPos="0.00" departSpeed="max" arrivalLane="0" arrivalPos="max">
        <route edges="edge-west-WE edge-west-WS edge-south-SE edge-east-EN edge-north-NW edge-west-EW"/>
    </vehicle>
    <vehicle id="car-flow-route-edge-west-WE_0_0-edge-west-EW_0_max-7080099210646399451--5586913223005169377--1-1.12" type="actor-car--8265006805252636981" depart="648.00" departLane="0" departPos="0.00" departSpeed="max" arrivalLane="0" arrivalPos="max">
        <route edges="edge-west-WE edge-west-WS edge-south-SE edge-east-EN edge-north-NW edge-west-EW"/>
    </vehicle>
    <vehicle id="car-flow-route-edge-west-WE_0_0-edge-south-NS_0_max--5844143135098092109--5586913223005169377--0-1.13" type="actor-car--8265006805252636981" depart="702.00" departLane="0" departPos="0.00" departSpeed="max" arrivalLane="0" arrivalPos="max">
        <route edges="edge-west-WE edge-west-WS edge-south-NS"/>
    </vehicle>
    <vehicle id="car-flow-route-edge-west-WE_0_0-edge-west-EW_0_max-7080099210646399451--5586913223005169377--1-1.13" type="actor-car--8265006805252636981" depart="702.00" departLane="0" departPos="0.00" departSpeed="max" arrivalLane="0" arrivalPos="max">
        <route edges="edge-west-WE edge-west-WS edge-south-SE edge-east-EN edge-north-NW edge-west-EW"/>
    </vehicle>
    <vehicle id="car-flow-route-edge-west-WE_0_0-edge-south-NS_0_max--5844143135098092109--5586913223005169377--0-0.7" type="actor-car-9060248981651613779" depart="756.00" departLane="0" departPos="0.00" departSpeed="max" arrivalLane="0" arrivalPos="max">
        <route edges="edge-west-WE edge-west-WS edge-south-NS"/>
    </vehicle>
    <vehicle id="car-flow-route-edge-west-WE_0_0-edge-south-NS_0_max--5844143135098092109--5586913223005169377--0-1.14" type="actor-car--8265006805252636981" depart="756.00" departLane="0" departPos="0.00" departSpeed="max" arrivalLane="0" arrivalPos="max">
        <route edges="edge-west-WE edge-west-WS edge-south-NS"/>
    </vehicle>
    <vehicle id="car-flow-route-edge-west-WE_0_0-edge-west-EW_0_max-7080099210646399451--5586913223005169377--1-0.7" type="actor-car-9060248981651613779" depart="756.00" departLane="0" departPos="0.00" departSpeed="max" arrivalLane="0" arrivalPos="max">
        <route edges="edge-west-WE edge-west-WS edge-south-SE edge-east-EN edge-north-NW edge-west-EW"/>
    </vehicle>
    <vehicle id="car-flow-route-edge-west-WE_0_0-edge-west-EW_0_max-7080099210646399451--5586913223005169377--1-1.14" type="actor-car--8265006805252636981" depart="756.00" departLane="0" departPos="0.00" departSpeed="max" arrivalLane="0" arrivalPos="max">
        <route edges="edge-west-WE edge-west-WS edge-south-SE edge-east-EN edge-north-NW edge-west-EW"/>
    </vehicle>
    <vehicle id="car-flow-route-edge-west-WE_0_0-edge-south-NS_0_max--5844143135098092109--5586913223005169377--0-1.15" type="actor-car--8265006805252636981" depart="810.00" departLane="0" departPos="0.00" departSpeed="max" arrivalLane="0" arrivalPos="max">
        <route edges="edge-west-WE edge-west-WS edge-south-NS"/>
    </vehicle>
    <vehicle id="car-flow-route-edge-west-WE_0_0-edge-west-EW_0_max-7080099210646399451--5586913223005169377--1-1.15" type="actor-car--8265006805252636981" depart="810.00" departLane="0" departPos="0.00" departSpeed="max" arrivalLane="0" arrivalPos="max">
        <route edges="edge-west-WE edge-west-WS edge-south-SE edge-east-EN edge-north-NW edge-west-EW"/>
    </vehicle>
    <vehicle id="car-flow-route-edge-west-WE_0_0-edge-south-NS_0_max--5844143135098092109--5586913223005169377--0-0.8" type="actor-car-9060248981651613779" depart="864.00" departLane="0" departPos="0.00" departSpeed="max" arrivalLane="0" arrivalPos="max">
        <route edges="edge-west-WE edge-west-WS edge-south-NS"/>
    </vehicle>
    <vehicle id="car-flow-route-edge-west-WE_0_0-edge-south-NS_0_max--5844143135098092109--5586913223005169377--0-1.16" type="actor-car--8265006805252636981" depart="864.00" departLane="0" departPos="0.00" departSpeed="max" arrivalLane="0" arrivalPos="max">
        <route edges="edge-west-WE edge-west-WS edge-south-NS"/>
    </vehicle>
    <vehicle id="car-flow-route-edge-west-WE_0_0-edge-west-EW_0_max-7080099210646399451--5586913223005169377--1-0.8" type="actor-car-9060248981651613779" depart="864.00" departLane="0" departPos="0.00" departSpeed="max" arrivalLane="0" arrivalPos="max">
        <route edges="edge-west-WE edge-west-WS edge-south-SE edge-east-EN edge-north-NW edge-west-EW"/>
    </vehicle>
    <vehicle id="car-flow-route-edge-west-WE_0_0-edge-west-EW_0_max-7080099210646399451--5586913223005169377--1-1.16" type="actor-car--8265006805252636981" depart="864.00" departLane="0" departPos="0.00" departSpeed="max" arrivalLane="0" arrivalPos="max">
        <route edges="edge-west-WE edge-west-WS edge-south-SE edge-east-EN edge-north-NW edge-west-EW"/>
    </vehicle>
</routes>
