<?xml version="1.0" encoding="UTF-8"?>

<!-- generated on 2024-03-17 18:50:52 by Eclipse SUMO duarouter Version 1.10.0
<configuration xmlns:xsi="http://www.w3.org/2001/XMLSchema-instance" xsi:noNamespaceSchemaLocation="http://sumo.dlr.de/xsd/duarouterConfiguration.xsd">

    <input>
        <net-file value="./map.net.xml"/>
        <route-files value="/tmp/tmplyv4vaju/trips.trips.xml"/>
    </input>

    <output>
        <output-file value="./traffic/1399.rou.xml"/>
        <alternatives-output value="./traffic/1399.rou.alt.xml"/>
    </output>

    <processing>
        <unsorted-input value="true"/>
        <repair value="true"/>
    </processing>

    <report>
        <error-log value="/home/kenzhi/.smarts/_duarouter_routing/traffic/1399.log"/>
        <no-step-log value="true"/>
    </report>

    <random_number>
        <seed value="42"/>
    </random_number>

</configuration>
-->

<routes xmlns:xsi="http://www.w3.org/2001/XMLSchema-instance" xsi:noNamespaceSchemaLocation="http://sumo.dlr.de/xsd/routes_file.xsd">
    <vType id="actor-car-9060248981651613779" minGap="2.50" maxSpeed="13.89" speedFactor="normc(0.82,0.00)" vClass="passenger" accel="2.6" decel="4.5" sigma="0.5"/>
    <vehicle id="car-flow-route-edge-east-EW_0_0-edge-west-EW_0_max-2097599839712996413--5586913223005169377--0-0.0" type="actor-car-9060248981651613779" depart="0.00" departLane="0" departPos="0.00" departSpeed="max" arrivalLane="0" arrivalPos="max">
        <route edges="edge-east-EW edge-east-EN edge-north-NW edge-west-EW"/>
    </vehicle>
    <vType id="actor-car--8265006805252636981" minGap="2.50" maxSpeed="13.89" speedFactor="normc(0.51,0.00)" vClass="passenger" lcCooperative="0.05" lcPushy="0.05" lcImpatience="0.05" accel="2.6" decel="4.5" sigma="0.5"/>
    <vehicle id="car-flow-route-edge-east-EW_0_0-edge-west-EW_0_max-2097599839712996413--5586913223005169377--0-1.0" type="actor-car--8265006805252636981" depart="0.00" departLane="0" departPos="0.00" departSpeed="max" arrivalLane="0" arrivalPos="max">
        <route edges="edge-east-EW edge-east-EN edge-north-NW edge-west-EW"/>
    </vehicle>
    <vehicle id="car-flow-route-edge-north-NS_0_0-edge-east-WE_0_max-6826839786933480571--5586913223005169377--2-0.0" type="actor-car-9060248981651613779" depart="0.00" departLane="0" departPos="0.00" departSpeed="max" arrivalLane="0" arrivalPos="max">
        <route edges="edge-north-NS edge-east-NE edge-east-WE"/>
    </vehicle>
    <vehicle id="car-flow-route-edge-north-NS_0_0-edge-east-WE_0_max-6826839786933480571--5586913223005169377--2-1.0" type="actor-car--8265006805252636981" depart="0.00" departLane="0" departPos="0.00" departSpeed="max" arrivalLane="0" arrivalPos="max">
        <route edges="edge-north-NS edge-east-NE edge-east-WE"/>
    </vehicle>
    <vehicle id="car-flow-route-edge-north-NS_0_0-edge-north-SN_0_max--2016962655867334166--5586913223005169377--1-0.0" type="actor-car-9060248981651613779" depart="0.00" departLane="0" departPos="0.00" departSpeed="max" arrivalLane="0" arrivalPos="max">
        <route edges="edge-north-NS edge-north-NW edge-west-WS edge-south-SE edge-east-EN edge-north-SN"/>
    </vehicle>
    <vehicle id="car-flow-route-edge-north-NS_0_0-edge-north-SN_0_max--2016962655867334166--5586913223005169377--1-1.0" type="actor-car--8265006805252636981" depart="0.00" departLane="0" departPos="0.00" departSpeed="max" arrivalLane="0" arrivalPos="max">
        <route edges="edge-north-NS edge-north-NW edge-west-WS edge-south-SE edge-east-EN edge-north-SN"/>
    </vehicle>
    <vehicle id="car-flow-route-edge-south-SN_0_0-edge-south-NS_0_max--870643014376809602--5586913223005169377--3-0.0" type="actor-car-9060248981651613779" depart="0.00" departLane="0" departPos="0.00" departSpeed="max" arrivalLane="0" arrivalPos="max">
        <route edges="edge-south-SN edge-south-SE edge-east-EN edge-north-NW edge-west-WS edge-south-NS"/>
    </vehicle>
    <vehicle id="car-flow-route-edge-south-SN_0_0-edge-south-NS_0_max--870643014376809602--5586913223005169377--3-1.0" type="actor-car--8265006805252636981" depart="0.00" departLane="0" departPos="0.00" departSpeed="max" arrivalLane="0" arrivalPos="max">
        <route edges="edge-south-SN edge-south-SE edge-east-EN edge-north-NW edge-west-WS edge-south-NS"/>
    </vehicle>
    <vehicle id="car-flow-route-edge-east-EW_0_0-edge-west-EW_0_max-2097599839712996413--5586913223005169377--0-1.1" type="actor-car--8265006805252636981" depart="54.00" departLane="0" departPos="0.00" departSpeed="max" arrivalLane="0" arrivalPos="max">
        <route edges="edge-east-EW edge-east-EN edge-north-NW edge-west-EW"/>
    </vehicle>
    <vehicle id="car-flow-route-edge-north-NS_0_0-edge-east-WE_0_max-6826839786933480571--5586913223005169377--2-1.1" type="actor-car--8265006805252636981" depart="54.00" departLane="0" departPos="0.00" departSpeed="max" arrivalLane="0" arrivalPos="max">
        <route edges="edge-north-NS edge-east-NE edge-east-WE"/>
    </vehicle>
    <vehicle id="car-flow-route-edge-north-NS_0_0-edge-north-SN_0_max--2016962655867334166--5586913223005169377--1-1.1" type="actor-car--8265006805252636981" depart="54.00" departLane="0" departPos="0.00" departSpeed="max" arrivalLane="0" arrivalPos="max">
        <route edges="edge-north-NS edge-north-NW edge-west-WS edge-south-SE edge-east-EN edge-north-SN"/>
    </vehicle>
    <vehicle id="car-flow-route-edge-south-SN_0_0-edge-south-NS_0_max--870643014376809602--5586913223005169377--3-1.1" type="actor-car--8265006805252636981" depart="54.00" departLane="0" departPos="0.00" departSpeed="max" arrivalLane="0" arrivalPos="max">
        <route edges="edge-south-SN edge-south-SE edge-east-EN edge-north-NW edge-west-WS edge-south-NS"/>
    </vehicle>
    <vehicle id="car-flow-route-edge-east-EW_0_0-edge-west-EW_0_max-2097599839712996413--5586913223005169377--0-0.1" type="actor-car-9060248981651613779" depart="108.00" departLane="0" departPos="0.00" departSpeed="max" arrivalLane="0" arrivalPos="max">
        <route edges="edge-east-EW edge-east-EN edge-north-NW edge-west-EW"/>
    </vehicle>
    <vehicle id="car-flow-route-edge-east-EW_0_0-edge-west-EW_0_max-2097599839712996413--5586913223005169377--0-1.2" type="actor-car--8265006805252636981" depart="108.00" departLane="0" departPos="0.00" departSpeed="max" arrivalLane="0" arrivalPos="max">
        <route edges="edge-east-EW edge-east-EN edge-north-NW edge-west-EW"/>
    </vehicle>
    <vehicle id="car-flow-route-edge-north-NS_0_0-edge-east-WE_0_max-6826839786933480571--5586913223005169377--2-0.1" type="actor-car-9060248981651613779" depart="108.00" departLane="0" departPos="0.00" departSpeed="max" arrivalLane="0" arrivalPos="max">
        <route edges="edge-north-NS edge-east-NE edge-east-WE"/>
    </vehicle>
    <vehicle id="car-flow-route-edge-north-NS_0_0-edge-east-WE_0_max-6826839786933480571--5586913223005169377--2-1.2" type="actor-car--8265006805252636981" depart="108.00" departLane="0" departPos="0.00" departSpeed="max" arrivalLane="0" arrivalPos="max">
        <route edges="edge-north-NS edge-east-NE edge-east-WE"/>
    </vehicle>
    <vehicle id="car-flow-route-edge-north-NS_0_0-edge-north-SN_0_max--2016962655867334166--5586913223005169377--1-0.1" type="actor-car-9060248981651613779" depart="108.00" departLane="0" departPos="0.00" departSpeed="max" arrivalLane="0" arrivalPos="max">
        <route edges="edge-north-NS edge-north-NW edge-west-WS edge-south-SE edge-east-EN edge-north-SN"/>
    </vehicle>
    <vehicle id="car-flow-route-edge-north-NS_0_0-edge-north-SN_0_max--2016962655867334166--5586913223005169377--1-1.2" type="actor-car--8265006805252636981" depart="108.00" departLane="0" departPos="0.00" departSpeed="max" arrivalLane="0" arrivalPos="max">
        <route edges="edge-north-NS edge-north-NW edge-west-WS edge-south-SE edge-east-EN edge-north-SN"/>
    </vehicle>
    <vehicle id="car-flow-route-edge-south-SN_0_0-edge-south-NS_0_max--870643014376809602--5586913223005169377--3-0.1" type="actor-car-9060248981651613779" depart="108.00" departLane="0" departPos="0.00" departSpeed="max" arrivalLane="0" arrivalPos="max">
        <route edges="edge-south-SN edge-south-SE edge-east-EN edge-north-NW edge-west-WS edge-south-NS"/>
    </vehicle>
    <vehicle id="car-flow-route-edge-south-SN_0_0-edge-south-NS_0_max--870643014376809602--5586913223005169377--3-1.2" type="actor-car--8265006805252636981" depart="108.00" departLane="0" departPos="0.00" departSpeed="max" arrivalLane="0" arrivalPos="max">
        <route edges="edge-south-SN edge-south-SE edge-east-EN edge-north-NW edge-west-WS edge-south-NS"/>
    </vehicle>
    <vehicle id="car-flow-route-edge-east-EW_0_0-edge-west-EW_0_max-2097599839712996413--5586913223005169377--0-1.3" type="actor-car--8265006805252636981" depart="162.00" departLane="0" departPos="0.00" departSpeed="max" arrivalLane="0" arrivalPos="max">
        <route edges="edge-east-EW edge-east-EN edge-north-NW edge-west-EW"/>
    </vehicle>
    <vehicle id="car-flow-route-edge-north-NS_0_0-edge-east-WE_0_max-6826839786933480571--5586913223005169377--2-1.3" type="actor-car--8265006805252636981" depart="162.00" departLane="0" departPos="0.00" departSpeed="max" arrivalLane="0" arrivalPos="max">
        <route edges="edge-north-NS edge-east-NE edge-east-WE"/>
    </vehicle>
    <vehicle id="car-flow-route-edge-north-NS_0_0-edge-north-SN_0_max--2016962655867334166--5586913223005169377--1-1.3" type="actor-car--8265006805252636981" depart="162.00" departLane="0" departPos="0.00" departSpeed="max" arrivalLane="0" arrivalPos="max">
        <route edges="edge-north-NS edge-north-NW edge-west-WS edge-south-SE edge-east-EN edge-north-SN"/>
    </vehicle>
    <vehicle id="car-flow-route-edge-south-SN_0_0-edge-south-NS_0_max--870643014376809602--5586913223005169377--3-1.3" type="actor-car--8265006805252636981" depart="162.00" departLane="0" departPos="0.00" departSpeed="max" arrivalLane="0" arrivalPos="max">
        <route edges="edge-south-SN edge-south-SE edge-east-EN edge-north-NW edge-west-WS edge-south-NS"/>
    </vehicle>
    <vehicle id="car-flow-route-edge-east-EW_0_0-edge-west-EW_0_max-2097599839712996413--5586913223005169377--0-0.2" type="actor-car-9060248981651613779" depart="216.00" departLane="0" departPos="0.00" departSpeed="max" arrivalLane="0" arrivalPos="max">
        <route edges="edge-east-EW edge-east-EN edge-north-NW edge-west-EW"/>
    </vehicle>
    <vehicle id="car-flow-route-edge-east-EW_0_0-edge-west-EW_0_max-2097599839712996413--5586913223005169377--0-1.4" type="actor-car--8265006805252636981" depart="216.00" departLane="0" departPos="0.00" departSpeed="max" arrivalLane="0" arrivalPos="max">
        <route edges="edge-east-EW edge-east-EN edge-north-NW edge-west-EW"/>
    </vehicle>
    <vehicle id="car-flow-route-edge-north-NS_0_0-edge-east-WE_0_max-6826839786933480571--5586913223005169377--2-0.2" type="actor-car-9060248981651613779" depart="216.00" departLane="0" departPos="0.00" departSpeed="max" arrivalLane="0" arrivalPos="max">
        <route edges="edge-north-NS edge-east-NE edge-east-WE"/>
    </vehicle>
    <vehicle id="car-flow-route-edge-north-NS_0_0-edge-east-WE_0_max-6826839786933480571--5586913223005169377--2-1.4" type="actor-car--8265006805252636981" depart="216.00" departLane="0" departPos="0.00" departSpeed="max" arrivalLane="0" arrivalPos="max">
        <route edges="edge-north-NS edge-east-NE edge-east-WE"/>
    </vehicle>
    <vehicle id="car-flow-route-edge-north-NS_0_0-edge-north-SN_0_max--2016962655867334166--5586913223005169377--1-0.2" type="actor-car-9060248981651613779" depart="216.00" departLane="0" departPos="0.00" departSpeed="max" arrivalLane="0" arrivalPos="max">
        <route edges="edge-north-NS edge-north-NW edge-west-WS edge-south-SE edge-east-EN edge-north-SN"/>
    </vehicle>
    <vehicle id="car-flow-route-edge-north-NS_0_0-edge-north-SN_0_max--2016962655867334166--5586913223005169377--1-1.4" type="actor-car--8265006805252636981" depart="216.00" departLane="0" departPos="0.00" departSpeed="max" arrivalLane="0" arrivalPos="max">
        <route edges="edge-north-NS edge-north-NW edge-west-WS edge-south-SE edge-east-EN edge-north-SN"/>
    </vehicle>
    <vehicle id="car-flow-route-edge-south-SN_0_0-edge-south-NS_0_max--870643014376809602--5586913223005169377--3-0.2" type="actor-car-9060248981651613779" depart="216.00" departLane="0" departPos="0.00" departSpeed="max" arrivalLane="0" arrivalPos="max">
        <route edges="edge-south-SN edge-south-SE edge-east-EN edge-north-NW edge-west-WS edge-south-NS"/>
    </vehicle>
    <vehicle id="car-flow-route-edge-south-SN_0_0-edge-south-NS_0_max--870643014376809602--5586913223005169377--3-1.4" type="actor-car--8265006805252636981" depart="216.00" departLane="0" departPos="0.00" departSpeed="max" arrivalLane="0" arrivalPos="max">
        <route edges="edge-south-SN edge-south-SE edge-east-EN edge-north-NW edge-west-WS edge-south-NS"/>
    </vehicle>
    <vehicle id="car-flow-route-edge-east-EW_0_0-edge-west-EW_0_max-2097599839712996413--5586913223005169377--0-1.5" type="actor-car--8265006805252636981" depart="270.00" departLane="0" departPos="0.00" departSpeed="max" arrivalLane="0" arrivalPos="max">
        <route edges="edge-east-EW edge-east-EN edge-north-NW edge-west-EW"/>
    </vehicle>
    <vehicle id="car-flow-route-edge-north-NS_0_0-edge-east-WE_0_max-6826839786933480571--5586913223005169377--2-1.5" type="actor-car--8265006805252636981" depart="270.00" departLane="0" departPos="0.00" departSpeed="max" arrivalLane="0" arrivalPos="max">
        <route edges="edge-north-NS edge-east-NE edge-east-WE"/>
    </vehicle>
    <vehicle id="car-flow-route-edge-north-NS_0_0-edge-north-SN_0_max--2016962655867334166--5586913223005169377--1-1.5" type="actor-car--8265006805252636981" depart="270.00" departLane="0" departPos="0.00" departSpeed="max" arrivalLane="0" arrivalPos="max">
        <route edges="edge-north-NS edge-north-NW edge-west-WS edge-south-SE edge-east-EN edge-north-SN"/>
    </vehicle>
    <vehicle id="car-flow-route-edge-south-SN_0_0-edge-south-NS_0_max--870643014376809602--5586913223005169377--3-1.5" type="actor-car--8265006805252636981" depart="270.00" departLane="0" departPos="0.00" departSpeed="max" arrivalLane="0" arrivalPos="max">
        <route edges="edge-south-SN edge-south-SE edge-east-EN edge-north-NW edge-west-WS edge-south-NS"/>
    </vehicle>
    <vehicle id="car-flow-route-edge-east-EW_0_0-edge-west-EW_0_max-2097599839712996413--5586913223005169377--0-0.3" type="actor-car-9060248981651613779" depart="324.00" departLane="0" departPos="0.00" departSpeed="max" arrivalLane="0" arrivalPos="max">
        <route edges="edge-east-EW edge-east-EN edge-north-NW edge-west-EW"/>
    </vehicle>
    <vehicle id="car-flow-route-edge-east-EW_0_0-edge-west-EW_0_max-2097599839712996413--5586913223005169377--0-1.6" type="actor-car--8265006805252636981" depart="324.00" departLane="0" departPos="0.00" departSpeed="max" arrivalLane="0" arrivalPos="max">
        <route edges="edge-east-EW edge-east-EN edge-north-NW edge-west-EW"/>
    </vehicle>
    <vehicle id="car-flow-route-edge-north-NS_0_0-edge-east-WE_0_max-6826839786933480571--5586913223005169377--2-0.3" type="actor-car-9060248981651613779" depart="324.00" departLane="0" departPos="0.00" departSpeed="max" arrivalLane="0" arrivalPos="max">
        <route edges="edge-north-NS edge-east-NE edge-east-WE"/>
    </vehicle>
    <vehicle id="car-flow-route-edge-north-NS_0_0-edge-east-WE_0_max-6826839786933480571--5586913223005169377--2-1.6" type="actor-car--8265006805252636981" depart="324.00" departLane="0" departPos="0.00" departSpeed="max" arrivalLane="0" arrivalPos="max">
        <route edges="edge-north-NS edge-east-NE edge-east-WE"/>
    </vehicle>
    <vehicle id="car-flow-route-edge-north-NS_0_0-edge-north-SN_0_max--2016962655867334166--5586913223005169377--1-0.3" type="actor-car-9060248981651613779" depart="324.00" departLane="0" departPos="0.00" departSpeed="max" arrivalLane="0" arrivalPos="max">
        <route edges="edge-north-NS edge-north-NW edge-west-WS edge-south-SE edge-east-EN edge-north-SN"/>
    </vehicle>
    <vehicle id="car-flow-route-edge-north-NS_0_0-edge-north-SN_0_max--2016962655867334166--5586913223005169377--1-1.6" type="actor-car--8265006805252636981" depart="324.00" departLane="0" departPos="0.00" departSpeed="max" arrivalLane="0" arrivalPos="max">
        <route edges="edge-north-NS edge-north-NW edge-west-WS edge-south-SE edge-east-EN edge-north-SN"/>
    </vehicle>
    <vehicle id="car-flow-route-edge-south-SN_0_0-edge-south-NS_0_max--870643014376809602--5586913223005169377--3-0.3" type="actor-car-9060248981651613779" depart="324.00" departLane="0" departPos="0.00" departSpeed="max" arrivalLane="0" arrivalPos="max">
        <route edges="edge-south-SN edge-south-SE edge-east-EN edge-north-NW edge-west-WS edge-south-NS"/>
    </vehicle>
    <vehicle id="car-flow-route-edge-south-SN_0_0-edge-south-NS_0_max--870643014376809602--5586913223005169377--3-1.6" type="actor-car--8265006805252636981" depart="324.00" departLane="0" departPos="0.00" departSpeed="max" arrivalLane="0" arrivalPos="max">
        <route edges="edge-south-SN edge-south-SE edge-east-EN edge-north-NW edge-west-WS edge-south-NS"/>
    </vehicle>
    <vehicle id="car-flow-route-edge-east-EW_0_0-edge-west-EW_0_max-2097599839712996413--5586913223005169377--0-1.7" type="actor-car--8265006805252636981" depart="378.00" departLane="0" departPos="0.00" departSpeed="max" arrivalLane="0" arrivalPos="max">
        <route edges="edge-east-EW edge-east-EN edge-north-NW edge-west-EW"/>
    </vehicle>
    <vehicle id="car-flow-route-edge-north-NS_0_0-edge-east-WE_0_max-6826839786933480571--5586913223005169377--2-1.7" type="actor-car--8265006805252636981" depart="378.00" departLane="0" departPos="0.00" departSpeed="max" arrivalLane="0" arrivalPos="max">
        <route edges="edge-north-NS edge-east-NE edge-east-WE"/>
    </vehicle>
    <vehicle id="car-flow-route-edge-north-NS_0_0-edge-north-SN_0_max--2016962655867334166--5586913223005169377--1-1.7" type="actor-car--8265006805252636981" depart="378.00" departLane="0" departPos="0.00" departSpeed="max" arrivalLane="0" arrivalPos="max">
        <route edges="edge-north-NS edge-north-NW edge-west-WS edge-south-SE edge-east-EN edge-north-SN"/>
    </vehicle>
    <vehicle id="car-flow-route-edge-south-SN_0_0-edge-south-NS_0_max--870643014376809602--5586913223005169377--3-1.7" type="actor-car--8265006805252636981" depart="378.00" departLane="0" departPos="0.00" departSpeed="max" arrivalLane="0" arrivalPos="max">
        <route edges="edge-south-SN edge-south-SE edge-east-EN edge-north-NW edge-west-WS edge-south-NS"/>
    </vehicle>
    <vehicle id="car-flow-route-edge-east-EW_0_0-edge-west-EW_0_max-2097599839712996413--5586913223005169377--0-0.4" type="actor-car-9060248981651613779" depart="432.00" departLane="0" departPos="0.00" departSpeed="max" arrivalLane="0" arrivalPos="max">
        <route edges="edge-east-EW edge-east-EN edge-north-NW edge-west-EW"/>
    </vehicle>
    <vehicle id="car-flow-route-edge-east-EW_0_0-edge-west-EW_0_max-2097599839712996413--5586913223005169377--0-1.8" type="actor-car--8265006805252636981" depart="432.00" departLane="0" departPos="0.00" departSpeed="max" arrivalLane="0" arrivalPos="max">
        <route edges="edge-east-EW edge-east-EN edge-north-NW edge-west-EW"/>
    </vehicle>
    <vehicle id="car-flow-route-edge-north-NS_0_0-edge-east-WE_0_max-6826839786933480571--5586913223005169377--2-0.4" type="actor-car-9060248981651613779" depart="432.00" departLane="0" departPos="0.00" departSpeed="max" arrivalLane="0" arrivalPos="max">
        <route edges="edge-north-NS edge-east-NE edge-east-WE"/>
    </vehicle>
    <vehicle id="car-flow-route-edge-north-NS_0_0-edge-east-WE_0_max-6826839786933480571--5586913223005169377--2-1.8" type="actor-car--8265006805252636981" depart="432.00" departLane="0" departPos="0.00" departSpeed="max" arrivalLane="0" arrivalPos="max">
        <route edges="edge-north-NS edge-east-NE edge-east-WE"/>
    </vehicle>
    <vehicle id="car-flow-route-edge-north-NS_0_0-edge-north-SN_0_max--2016962655867334166--5586913223005169377--1-0.4" type="actor-car-9060248981651613779" depart="432.00" departLane="0" departPos="0.00" departSpeed="max" arrivalLane="0" arrivalPos="max">
        <route edges="edge-north-NS edge-north-NW edge-west-WS edge-south-SE edge-east-EN edge-north-SN"/>
    </vehicle>
    <vehicle id="car-flow-route-edge-north-NS_0_0-edge-north-SN_0_max--2016962655867334166--5586913223005169377--1-1.8" type="actor-car--8265006805252636981" depart="432.00" departLane="0" departPos="0.00" departSpeed="max" arrivalLane="0" arrivalPos="max">
        <route edges="edge-north-NS edge-north-NW edge-west-WS edge-south-SE edge-east-EN edge-north-SN"/>
    </vehicle>
    <vehicle id="car-flow-route-edge-south-SN_0_0-edge-south-NS_0_max--870643014376809602--5586913223005169377--3-0.4" type="actor-car-9060248981651613779" depart="432.00" departLane="0" departPos="0.00" departSpeed="max" arrivalLane="0" arrivalPos="max">
        <route edges="edge-south-SN edge-south-SE edge-east-EN edge-north-NW edge-west-WS edge-south-NS"/>
    </vehicle>
    <vehicle id="car-flow-route-edge-south-SN_0_0-edge-south-NS_0_max--870643014376809602--5586913223005169377--3-1.8" type="actor-car--8265006805252636981" depart="432.00" departLane="0" departPos="0.00" departSpeed="max" arrivalLane="0" arrivalPos="max">
        <route edges="edge-south-SN edge-south-SE edge-east-EN edge-north-NW edge-west-WS edge-south-NS"/>
    </vehicle>
    <vehicle id="car-flow-route-edge-east-EW_0_0-edge-west-EW_0_max-2097599839712996413--5586913223005169377--0-1.9" type="actor-car--8265006805252636981" depart="486.00" departLane="0" departPos="0.00" departSpeed="max" arrivalLane="0" arrivalPos="max">
        <route edges="edge-east-EW edge-east-EN edge-north-NW edge-west-EW"/>
    </vehicle>
    <vehicle id="car-flow-route-edge-north-NS_0_0-edge-east-WE_0_max-6826839786933480571--5586913223005169377--2-1.9" type="actor-car--8265006805252636981" depart="486.00" departLane="0" departPos="0.00" departSpeed="max" arrivalLane="0" arrivalPos="max">
        <route edges="edge-north-NS edge-east-NE edge-east-WE"/>
    </vehicle>
    <vehicle id="car-flow-route-edge-north-NS_0_0-edge-north-SN_0_max--2016962655867334166--5586913223005169377--1-1.9" type="actor-car--8265006805252636981" depart="486.00" departLane="0" departPos="0.00" departSpeed="max" arrivalLane="0" arrivalPos="max">
        <route edges="edge-north-NS edge-north-NW edge-west-WS edge-south-SE edge-east-EN edge-north-SN"/>
    </vehicle>
    <vehicle id="car-flow-route-edge-south-SN_0_0-edge-south-NS_0_max--870643014376809602--5586913223005169377--3-1.9" type="actor-car--8265006805252636981" depart="486.00" departLane="0" departPos="0.00" departSpeed="max" arrivalLane="0" arrivalPos="max">
        <route edges="edge-south-SN edge-south-SE edge-east-EN edge-north-NW edge-west-WS edge-south-NS"/>
    </vehicle>
    <vehicle id="car-flow-route-edge-east-EW_0_0-edge-west-EW_0_max-2097599839712996413--5586913223005169377--0-0.5" type="actor-car-9060248981651613779" depart="540.00" departLane="0" departPos="0.00" departSpeed="max" arrivalLane="0" arrivalPos="max">
        <route edges="edge-east-EW edge-east-EN edge-north-NW edge-west-EW"/>
    </vehicle>
    <vehicle id="car-flow-route-edge-east-EW_0_0-edge-west-EW_0_max-2097599839712996413--5586913223005169377--0-1.10" type="actor-car--8265006805252636981" depart="540.00" departLane="0" departPos="0.00" departSpeed="max" arrivalLane="0" arrivalPos="max">
        <route edges="edge-east-EW edge-east-EN edge-north-NW edge-west-EW"/>
    </vehicle>
    <vehicle id="car-flow-route-edge-north-NS_0_0-edge-east-WE_0_max-6826839786933480571--5586913223005169377--2-0.5" type="actor-car-9060248981651613779" depart="540.00" departLane="0" departPos="0.00" departSpeed="max" arrivalLane="0" arrivalPos="max">
        <route edges="edge-north-NS edge-east-NE edge-east-WE"/>
    </vehicle>
    <vehicle id="car-flow-route-edge-north-NS_0_0-edge-east-WE_0_max-6826839786933480571--5586913223005169377--2-1.10" type="actor-car--8265006805252636981" depart="540.00" departLane="0" departPos="0.00" departSpeed="max" arrivalLane="0" arrivalPos="max">
        <route edges="edge-north-NS edge-east-NE edge-east-WE"/>
    </vehicle>
    <vehicle id="car-flow-route-edge-north-NS_0_0-edge-north-SN_0_max--2016962655867334166--5586913223005169377--1-0.5" type="actor-car-9060248981651613779" depart="540.00" departLane="0" departPos="0.00" departSpeed="max" arrivalLane="0" arrivalPos="max">
        <route edges="edge-north-NS edge-north-NW edge-west-WS edge-south-SE edge-east-EN edge-north-SN"/>
    </vehicle>
    <vehicle id="car-flow-route-edge-north-NS_0_0-edge-north-SN_0_max--2016962655867334166--5586913223005169377--1-1.10" type="actor-car--8265006805252636981" depart="540.00" departLane="0" departPos="0.00" departSpeed="max" arrivalLane="0" arrivalPos="max">
        <route edges="edge-north-NS edge-north-NW edge-west-WS edge-south-SE edge-east-EN edge-north-SN"/>
    </vehicle>
    <vehicle id="car-flow-route-edge-south-SN_0_0-edge-south-NS_0_max--870643014376809602--5586913223005169377--3-0.5" type="actor-car-9060248981651613779" depart="540.00" departLane="0" departPos="0.00" departSpeed="max" arrivalLane="0" arrivalPos="max">
        <route edges="edge-south-SN edge-south-SE edge-east-EN edge-north-NW edge-west-WS edge-south-NS"/>
    </vehicle>
    <vehicle id="car-flow-route-edge-south-SN_0_0-edge-south-NS_0_max--870643014376809602--5586913223005169377--3-1.10" type="actor-car--8265006805252636981" depart="540.00" departLane="0" departPos="0.00" departSpeed="max" arrivalLane="0" arrivalPos="max">
        <route edges="edge-south-SN edge-south-SE edge-east-EN edge-north-NW edge-west-WS edge-south-NS"/>
    </vehicle>
    <vehicle id="car-flow-route-edge-east-EW_0_0-edge-west-EW_0_max-2097599839712996413--5586913223005169377--0-1.11" type="actor-car--8265006805252636981" depart="594.00" departLane="0" departPos="0.00" departSpeed="max" arrivalLane="0" arrivalPos="max">
        <route edges="edge-east-EW edge-east-EN edge-north-NW edge-west-EW"/>
    </vehicle>
    <vehicle id="car-flow-route-edge-north-NS_0_0-edge-east-WE_0_max-6826839786933480571--5586913223005169377--2-1.11" type="actor-car--8265006805252636981" depart="594.00" departLane="0" departPos="0.00" departSpeed="max" arrivalLane="0" arrivalPos="max">
        <route edges="edge-north-NS edge-east-NE edge-east-WE"/>
    </vehicle>
    <vehicle id="car-flow-route-edge-north-NS_0_0-edge-north-SN_0_max--2016962655867334166--5586913223005169377--1-1.11" type="actor-car--8265006805252636981" depart="594.00" departLane="0" departPos="0.00" departSpeed="max" arrivalLane="0" arrivalPos="max">
        <route edges="edge-north-NS edge-north-NW edge-west-WS edge-south-SE edge-east-EN edge-north-SN"/>
    </vehicle>
    <vehicle id="car-flow-route-edge-south-SN_0_0-edge-south-NS_0_max--870643014376809602--5586913223005169377--3-1.11" type="actor-car--8265006805252636981" depart="594.00" departLane="0" departPos="0.00" departSpeed="max" arrivalLane="0" arrivalPos="max">
        <route edges="edge-south-SN edge-south-SE edge-east-EN edge-north-NW edge-west-WS edge-south-NS"/>
    </vehicle>
    <vehicle id="car-flow-route-edge-east-EW_0_0-edge-west-EW_0_max-2097599839712996413--5586913223005169377--0-0.6" type="actor-car-9060248981651613779" depart="648.00" departLane="0" departPos="0.00" departSpeed="max" arrivalLane="0" arrivalPos="max">
        <route edges="edge-east-EW edge-east-EN edge-north-NW edge-west-EW"/>
    </vehicle>
    <vehicle id="car-flow-route-edge-east-EW_0_0-edge-west-EW_0_max-2097599839712996413--5586913223005169377--0-1.12" type="actor-car--8265006805252636981" depart="648.00" departLane="0" departPos="0.00" departSpeed="max" arrivalLane="0" arrivalPos="max">
        <route edges="edge-east-EW edge-east-EN edge-north-NW edge-west-EW"/>
    </vehicle>
    <vehicle id="car-flow-route-edge-north-NS_0_0-edge-east-WE_0_max-6826839786933480571--5586913223005169377--2-0.6" type="actor-car-9060248981651613779" depart="648.00" departLane="0" departPos="0.00" departSpeed="max" arrivalLane="0" arrivalPos="max">
        <route edges="edge-north-NS edge-east-NE edge-east-WE"/>
    </vehicle>
    <vehicle id="car-flow-route-edge-north-NS_0_0-edge-east-WE_0_max-6826839786933480571--5586913223005169377--2-1.12" type="actor-car--8265006805252636981" depart="648.00" departLane="0" departPos="0.00" departSpeed="max" arrivalLane="0" arrivalPos="max">
        <route edges="edge-north-NS edge-east-NE edge-east-WE"/>
    </vehicle>
    <vehicle id="car-flow-route-edge-north-NS_0_0-edge-north-SN_0_max--2016962655867334166--5586913223005169377--1-0.6" type="actor-car-9060248981651613779" depart="648.00" departLane="0" departPos="0.00" departSpeed="max" arrivalLane="0" arrivalPos="max">
        <route edges="edge-north-NS edge-north-NW edge-west-WS edge-south-SE edge-east-EN edge-north-SN"/>
    </vehicle>
    <vehicle id="car-flow-route-edge-north-NS_0_0-edge-north-SN_0_max--2016962655867334166--5586913223005169377--1-1.12" type="actor-car--8265006805252636981" depart="648.00" departLane="0" departPos="0.00" departSpeed="max" arrivalLane="0" arrivalPos="max">
        <route edges="edge-north-NS edge-north-NW edge-west-WS edge-south-SE edge-east-EN edge-north-SN"/>
    </vehicle>
    <vehicle id="car-flow-route-edge-south-SN_0_0-edge-south-NS_0_max--870643014376809602--5586913223005169377--3-0.6" type="actor-car-9060248981651613779" depart="648.00" departLane="0" departPos="0.00" departSpeed="max" arrivalLane="0" arrivalPos="max">
        <route edges="edge-south-SN edge-south-SE edge-east-EN edge-north-NW edge-west-WS edge-south-NS"/>
    </vehicle>