<?xml version="1.0" encoding="UTF-8"?>

<!-- generated on 2024-03-13 02:01:37 by Eclipse SUMO netconvert Version 1.10.0
<configuration xmlns:xsi="http://www.w3.org/2001/XMLSchema-instance" xsi:noNamespaceSchemaLocation="http://sumo.dlr.de/xsd/netconvertConfiguration.xsd">

    <input>
        <sumo-net-file value="Scenario/Test/map.net.xml"/>
    </input>

    <output>
        <output-file value="Scenario/Test/shifted_map-AUTOGEN.net.xml"/>
    </output>

    <processing>
        <geometry.min-radius.fix.railways value="false"/>
        <geometry.max-grade.fix value="false"/>
        <offset.disable-normalization value="false"/>
        <lefthand value="false"/>
    </processing>

    <junctions>
        <no-turnarounds value="true"/>
        <junctions.corner-detail value="5"/>
        <junctions.limit-turn-speed value="5.5"/>
        <rectangular-lane-cut value="false"/>
    </junctions>

    <pedestrian>
        <walkingareas value="false"/>
    </pedestrian>

    <report>
        <aggregate-warnings value="5"/>
    </report>

    <random_number>
        <seed value="370627093"/>
    </random_number>

</configuration>
-->

<net version="1.9" junctionCornerDetail="5" limitTurnSpeed="5.50" xmlns:xsi="http://www.w3.org/2001/XMLSchema-instance" xsi:noNamespaceSchemaLocation="http://sumo.dlr.de/xsd/net_file.xsd">

    <location netOffset="78.49,-43.13" convBoundary="0.00,0.00,237.35,191.80" origBoundary="-10000000000.00,-10000000000.00,10000000000.00,10000000000.00" projParameter="!"/>

    <edge id=":J10_0" function="internal">
        <lane id=":J10_0_0" index="0" speed="12.52" length="1.78" shape="154.89,121.47 154.52,122.27 154.21,122.79 153.82,123.25 153.20,123.87"/>
        <lane id=":J10_0_1" index="1" speed="9.78" length="1.78" shape="151.98,120.14 151.76,120.62 151.58,120.93 151.34,121.21 150.97,121.58"/>
        <lane id=":J10_0_2" index="2" speed="13.89" length="1.78" shape="149.07,118.81 149.00,118.97 148.94,119.07 148.86,119.16 148.74,119.29"/>
    </edge>
    <edge id=":J11_0" function="internal">
        <lane id=":J11_0_0" index="0" speed="7.61" length="10.20" shape="111.78,142.66 111.44,139.69 110.47,137.39 108.88,135.74 106.66,134.76"/>
        <lane id=":J11_0_1" index="1" speed="8.95" length="14.43" shape="114.98,142.62 114.48,138.55 113.06,135.36 110.72,133.07 107.46,131.66"/>
    </edge>
    <edge id=":J11_2" function="internal">
        <lane id=":J11_2_0" index="0" speed="6.51" length="9.02" shape="126.92,136.91 124.48,137.28 122.74,138.35 121.71,140.11 121.38,142.56"/>
        <lane id=":J11_2_1" index="1" speed="7.33" length="11.72" shape="126.92,136.91 123.08,137.30 120.34,138.38 118.71,140.14 118.18,142.59"/>
    </edge>
    <edge id=":J11_4" function="internal">
        <lane id=":J11_4_0" index="0" speed="13.89" length="19.64" shape="126.92,136.91 120.85,136.98 116.67,136.83 112.55,136.18 106.66,134.76"/>
        <lane id=":J11_4_1" index="1" speed="13.89" length="19.64" shape="126.89,133.71 121.06,133.78 117.06,133.64 113.11,133.02 107.46,131.66"/>
        <lane id=":J11_4_2" index="2" speed="13.89" length="19.64" shape="126.85,130.51 121.28,130.57 117.44,130.45 113.66,129.86 108.25,128.56"/>
    </edge>
    <edge id=":J12_0" function="internal">
        <lane id=":J12_0_0" index="0" speed="13.89" length="4.21" shape="91.49,128.85 90.33,127.92 89.51,127.30 88.78,126.59 87.87,125.43"/>
        <lane id=":J12_0_1" index="1" speed="13.89" length="4.21" shape="93.57,126.43 92.59,125.65 91.89,125.14 91.26,124.56 90.49,123.59"/>
        <lane id=":J12_0_2" index="2" speed="13.89" length="4.21" shape="95.65,124.00 94.85,123.38 94.27,122.98 93.74,122.53 93.11,121.75"/>
    </edge>
    <edge id=":J5_0" function="internal">
        <lane id=":J5_0_0" index="0" speed="7.26" length="10.07" shape="78.32,103.79 77.64,101.44 76.21,99.72 74.04,98.62 71.13,98.15"/>
        <lane id=":J5_0_1" index="1" speed="7.99" length="12.40" shape="78.32,103.79 77.51,100.03 76.07,97.31 73.99,95.61 71.28,94.95"/>
    </edge>
    <edge id=":J5_2" function="internal">
        <lane id=":J5_2_0" index="0" speed="13.89" length="20.31" shape="78.32,103.79 77.65,97.69 77.35,93.50 77.26,89.30 77.28,83.16"/>
        <lane id=":J5_2_1" index="1" speed="13.89" length="20.31" shape="81.49,103.43 80.85,97.44 80.54,93.32 80.46,89.19 80.48,83.17"/>
        <lane id=":J5_2_2" index="2" speed="13.89" length="20.31" shape="84.67,103.06 84.04,97.18 83.74,93.14 83.66,89.09 83.68,83.17"/>
    </edge>
    <edge id=":J5_5" function="internal">
        <lane id=":J5_5_0" index="0" speed="6.41" length="9.04" shape="71.59,88.56 74.08,88.32 75.85,87.35 76.92,85.62 77.28,83.16"/>
        <lane id=":J5_5_1" index="1" speed="7.92" length="14.37" shape="71.44,91.75 75.38,91.38 78.21,89.83 79.90,87.09 80.48,83.17"/>
    </edge>
    <edge id=":J6_0" function="internal">
        <lane id=":J6_0_0" index="0" speed="13.89" length="4.62" shape="87.21,66.95 88.39,65.74 89.20,64.88 90.10,64.17 91.57,63.39"/>
        <lane id=":J6_0_1" index="1" speed="13.89" length="4.62" shape="89.42,69.26 90.37,68.27 91.01,67.55 91.72,66.94 92.91,66.30"/>
        <lane id=":J6_0_2" index="2" speed="13.89" length="4.62" shape="91.64,71.58 92.36,70.80 92.82,70.21 93.34,69.72 94.24,69.21"/>
    </edge>
    <edge id=":J7_0" function="internal">
        <lane id=":J7_0_0" index="0" speed="6.66" length="9.49" shape="126.51,51.85 126.82,54.55 127.85,56.49 129.58,57.68 132.02,58.10"/>
        <lane id=":J7_0_1" index="1" speed="8.13" length="14.62" shape="123.31,51.81 123.81,55.90 125.41,58.85 128.12,60.65 131.95,61.30"/>
    </edge>
    <edge id=":J7_2" function="internal">
        <lane id=":J7_2_0" index="0" speed="6.34" length="9.03" shape="111.14,56.93 113.64,56.80 115.43,55.89 116.52,54.20 116.91,51.72"/>
        <lane id=":J7_2_1" index="1" speed="7.17" length="11.87" shape="111.14,56.93 115.03,56.92 117.83,56.05 119.52,54.33 120.11,51.77"/>
    </edge>
    <edge id=":J7_4" function="internal">
        <lane id=":J7_4_0" index="0" speed="13.89" length="21.20" shape="111.14,56.93 132.02,58.10"/>
        <lane id=":J7_4_1" index="1" speed="13.89" length="21.20" shape="110.86,60.12 131.95,61.30"/>
        <lane id=":J7_4_2" index="2" speed="13.89" length="21.20" shape="110.57,63.44 116.75,62.42 121.09,62.87 125.50,63.87 131.88,64.50"/>
    </edge>
    <edge id=":J8_0" function="internal">
        <lane id=":J8_0_0" index="0" speed="13.89" length="0.68" shape="146.57,66.98 146.84,67.19 147.02,67.33 147.19,67.49 147.43,67.73"/>
        <lane id=":J8_0_1" index="1" speed="13.89" length="0.68" shape="144.65,69.54 144.82,69.67 144.92,69.75 145.03,69.85 145.17,69.99"/>
        <lane id=":J8_0_2" index="2" speed="13.89" length="0.68" shape="142.74,72.11 142.79,72.15 142.83,72.18 142.86,72.21 142.91,72.26"/>
    </edge>
    <edge id=":J9_0" function="internal">
        <lane id=":J9_0_0" index="0" speed="6.58" length="7.42" shape="166.09,97.12 164.17,97.55 162.69,98.47 161.66,99.87 161.08,101.76"/>
        <lane id=":J9_0_1" index="1" speed="8.09" length="11.66" shape="165.80,93.93 162.78,94.61 160.46,96.06 158.84,98.26 157.92,101.22"/>
    </edge>
    <edge id=":J9_2" function="internal">
        <lane id=":J9_2_0" index="0" speed="6.65" length="7.48" shape="159.34,83.95 160.28,85.68 161.58,86.85 163.23,87.48 165.22,87.56"/>
        <lane id=":J9_2_1" index="1" speed="7.50" length="9.74" shape="159.34,83.95 160.75,87.04 162.25,89.20 163.84,90.44 165.51,90.74"/>
    </edge>
    <edge id=":J9_4" function="internal">
        <lane id=":J9_4_0" index="0" speed="13.89" length="16.55" shape="159.34,83.95 161.18,89.01 161.98,92.68 161.89,96.43 161.08,101.76"/>
        <lane id=":J9_4_1" index="1" speed="13.89" length="16.55" shape="156.35,85.10 158.02,89.68 158.74,93.00 158.66,96.40 157.92,101.22"/>
        <lane id=":J9_4_2" index="2" speed="13.89" length="16.55" shape="153.37,86.25 154.86,90.35 155.50,93.32 155.43,96.36 154.77,100.68"/>
    </edge>

    <edge id="-A1" from="J1" to="J5" priority="-1">
        <lane id="-A1_0" index="0" speed="13.89" length="71.44" shape="0.23,85.07 71.59,88.56"/>
        <lane id="-A1_1" index="1" speed="13.89" length="71.44" shape="0.08,88.26 71.44,91.75"/>
    </edge>
    <edge id="-A2" from="J2" to="J11" priority="-1">
        <lane id="-A2_0" index="0" speed="13.89" length="49.19" shape="112.26,191.85 111.78,142.66"/>
        <lane id="-A2_1" index="1" speed="13.89" length="49.19" shape="115.46,191.82 114.98,142.62"/>
    </edge>
    <edge id="-A3" from="J9" to="J3" priority="-1" shape="154.39,93.36 190.81,90.05 237.35,85.82">
        <lane id="-A3_0" index="0" speed="13.89" length="71.99" shape="165.22,87.56 190.38,85.27 236.92,81.04"/>
        <lane id="-A3_1" index="1" speed="13.89" length="71.99" shape="165.51,90.74 190.67,88.46 237.21,84.23"/>
    </edge>
    <edge id="-A4" from="J4" to="J7" priority="-1">
        <lane id="-A4_0" index="0" speed="13.89" length="51.79" shape="127.17,0.06 126.51,51.85"/>
        <lane id="-A4_1" index="1" speed="13.89" length="51.79" shape="123.97,0.02 123.31,51.81"/>
    </edge>
    <edge id="A1" from="J5" to="J1" priority="-1" shape="85.25,94.03 34.30,91.54 0.00,89.86">
        <lane id="A1_0" index="0" speed="13.89" length="71.45" shape="71.13,98.15 34.07,96.33 -0.23,94.65"/>
        <lane id="A1_1" index="1" speed="13.89" length="71.45" shape="71.28,94.95 34.22,93.14 -0.08,91.46"/>
    </edge>
    <edge id="A3" from="J3" to="J9" priority="-1">
        <lane id="A3_0" index="0" speed="13.89" length="71.99" shape="237.78,90.60 166.09,97.12"/>
        <lane id="A3_1" index="1" speed="13.89" length="71.99" shape="237.49,87.41 165.80,93.93"/>
    </edge>
    <edge id="A4" from="J7" to="J4" priority="-1">
        <lane id="A4_0" index="0" speed="13.89" length="51.79" shape="116.91,51.72 117.57,-0.06"/>
        <lane id="A4_1" index="1" speed="13.89" length="51.79" shape="120.11,51.77 120.77,-0.02"/>
    </edge>
    <edge id="E2" from="J11" to="J2" priority="-1">
        <lane id="E2_0" index="0" speed="13.89" length="49.19" shape="121.38,142.56 121.86,191.75"/>
        <lane id="E2_1" index="1" speed="13.89" length="49.19" shape="118.18,142.59 118.66,191.78"/>
    </edge>
    <edge id="R1" from="J5" to="J6" priority="-1" shape="85.25,94.03 85.28,82.15 87.56,77.69 94.91,70.66">
        <lane id="R1_0" index="0" speed="13.89" length="17.13" shape="77.28,83.16 77.28,80.21 81.05,72.84 87.21,66.95"/>
        <lane id="R1_1" index="1" speed="13.89" length="17.13" shape="80.48,83.17 80.48,80.99 83.66,74.78 89.42,69.26"/>
        <lane id="R1_2" index="2" speed="13.89" length="17.13" shape="83.68,83.17 83.68,81.76 86.26,76.72 91.64,71.58"/>
    </edge>
    <edge id="R2" from="J6" to="J7" priority="-1" shape="94.91,70.66 102.21,67.31 111.07,64.96 121.53,65.92">
        <lane id="R2_0" index="0" speed="13.89" length="19.06" shape="91.57,63.39 99.50,59.75 110.39,56.86 111.14,56.93"/>
        <lane id="R2_1" index="1" speed="13.89" length="19.06" shape="92.91,66.30 100.58,62.78 110.66,60.10 110.86,60.12"/>
        <lane id="R2_2" index="2" speed="13.89" length="19.06" shape="94.24,69.21 101.67,65.80 110.57,63.44"/>
    </edge>
    <edge id="R3" from="J7" to="J8" priority="-1" shape="121.53,65.92 131.67,66.10 138.10,70.64 141.78,73.39">
        <lane id="R3_0" index="0" speed="13.89" length="15.36" shape="132.02,58.10 134.27,58.14 142.80,64.17 146.57,66.98"/>
        <lane id="R3_1" index="1" speed="13.89" length="15.36" shape="131.95,61.30 133.23,61.33 140.92,66.76 144.65,69.54"/>
        <lane id="R3_2" index="2" speed="13.89" length="15.36" shape="131.88,64.50 132.19,64.51 139.04,69.35 142.74,72.11"/>
    </edge>
    <edge id="R4" from="J8" to="J9" priority="-1" shape="141.78,73.39 149.77,81.36 154.39,93.36">
        <lane id="R4_0" index="0" speed="13.89" length="19.18" shape="147.43,67.73 156.62,76.90 159.34,83.95"/>
        <lane id="R4_1" index="1" speed="13.89" length="19.18" shape="145.17,69.99 153.88,78.68 156.35,85.10"/>
        <lane id="R4_2" index="2" speed="13.89" length="19.18" shape="142.91,72.26 151.14,80.47 153.37,86.25"/>
    </edge>
    <edge id="R5" from="J9" to="J10" priority="-1" shape="154.39,93.36 151.69,109.26 147.62,118.14">
        <lane id="R5_0" index="0" speed="13.89" length="20.00" shape="161.08,101.76 159.40,111.64 154.89,121.47"/>
        <lane id="R5_1" index="1" speed="13.89" length="20.00" shape="157.92,101.22 156.32,110.69 151.98,120.14"/>
        <lane id="R5_2" index="2" speed="13.89" length="20.00" shape="154.77,100.68 153.23,109.74 149.07,118.81"/>
    </edge>
    <edge id="R6" from="J10" to="J11" priority="-1" shape="147.62,118.14 141.52,124.08 137.23,126.80 130.46,128.87 116.45,129.02">
        <lane id="R6_0" index="0" speed="13.89" length="27.97" shape="153.20,123.87 146.51,130.39 140.60,134.13 131.70,136.86 126.92,136.91"/>
        <lane id="R6_1" index="1" speed="13.89" length="27.97" shape="150.97,121.58 144.51,127.87 139.25,131.20 131.20,133.66 126.89,133.71"/>
        <lane id="R6_2" index="2" speed="13.89" length="27.97" shape="148.74,119.29 142.52,125.34 137.90,128.27 130.71,130.47 126.85,130.51"/>
    </edge>
    <edge id="R7" from="J11" to="J12" priority="-1" shape="116.45,129.02 105.29,126.15 98.86,124.64 94.42,120.83">
        <lane id="R7_0" index="0" speed="13.89" length="15.17" shape="106.66,134.76 103.38,133.92 95.13,131.98 91.49,128.85"/>
        <lane id="R7_1" index="1" speed="13.89" length="15.17" shape="107.46,131.66 104.14,130.81 96.62,129.05 93.57,126.43"/>
        <lane id="R7_2" index="2" speed="13.89" length="15.17" shape="108.25,128.56 104.91,127.70 98.11,126.11 95.65,124.00"/>
    </edge>
    <edge id="R8" from="J12" to="J5" priority="-1" shape="94.42,120.83 87.13,110.45 85.25,94.03">
        <lane id="R8_0" index="0" speed="13.89" length="22.75" shape="87.87,125.43 79.41,113.38 78.32,103.79"/>
        <lane id="R8_1" index="1" speed="13.89" length="22.75" shape="90.49,123.59 82.50,112.21 81.49,103.43"/>
        <lane id="R8_2" index="2" speed="13.89" length="22.75" shape="93.11,121.75 85.59,111.04 84.67,103.06"/>
    </edge>

    <junction id="J1" type="dead_end" x="0.00" y="89.86" incLanes="A1_0 A1_1" intLanes="" shape="0.00,89.86 -0.31,96.25 0.00,89.86"/>
    <junction id="J10" type="priority" x="147.62" y="118.14" incLanes="R5_0 R5_1 R5_2" intLanes=":J10_0_0 :J10_0_1 :J10_0_2" shape="156.35,122.14 147.62,118.14 154.32,125.02 155.24,124.08 155.53,123.72 155.78,123.32 156.03,122.82">
        <request index="0" response="000" foes="000" cont="0"/>
        <request index="1" response="000" foes="000" cont="0"/>
        <request index="2" response="000" foes="000" cont="0"/>
    </junction>
    <junction id="J11" type="priority" x="116.45" y="129.02" incLanes="-A2_0 -A2_1 R6_0 R6_1 R6_2" intLanes=":J11_0_0 :J11_0_1 :J11_2_0 :J11_2_1 :J11_4_0 :J11_4_1 :J11_4_2" shape="110.18,142.67 122.98,142.55 123.40,140.32 123.95,139.54 124.72,138.98 125.72,138.63 126.94,138.51 126.84,128.91 122.93,128.96 120.03,128.97 117.64,128.85 115.27,128.54 112.44,127.95 108.65,127.01 106.26,136.31 108.42,137.46 109.18,138.40 109.72,139.58 110.06,141.00">
        <request index="0" response="0010000" foes="0010000" cont="0"/>
        <request index="1" response="0110000" foes="0110000" cont="0"/>
        <request index="2" response="0000000" foes="0000000" cont="0"/>
        <request index="3" response="0000000" foes="0000000" cont="0"/>
        <request index="4" response="0000000" foes="0000011" cont="0"/>
        <request index="5" response="0000000" foes="0000010" cont="0"/>
        <request index="6" response="0000000" foes="0000000" cont="0"/>
    </junction>
    <junction id="J12" type="priority" x="94.42" y="120.83" incLanes="R7_0 R7_1 R7_2" intLanes=":J12_0_0 :J12_0_1 :J12_0_2" shape="90.45,130.07 96.70,122.78 95.79,122.12 95.45,121.90 95.14,121.66 94.81,121.33 94.42,120.83 86.56,126.35 87.80,127.90 88.32,128.38 88.88,128.81 89.56,129.34">
        <request index="0" response="000" foes="000" cont="0"/>
        <request index="1" response="000" foes="000" cont="0"/>
        <request index="2" response="000" foes="000" cont="0"/>
    </junction>
    <junction id="J2" type="dead_end" x="117.06" y="191.80" incLanes="E2_0 E2_1" intLanes="" shape="117.06,191.80 123.46,191.74 117.06,191.80"/>
    <junction id="J3" type="dead_end" x="237.35" y="85.82" incLanes="-A3_0 -A3_1" intLanes="" shape="237.35,85.82 236.77,79.45 237.35,85.82"/>
    <junction id="J4" type="dead_end" x="122.37" y="0.00" incLanes="A4_0 A4_1" intLanes="" shape="122.37,0.00 115.97,-0.08 122.37,0.00"/>
    <junction id="J5" type="priority" x="85.25" y="94.03" incLanes="R8_0 R8_1 R8_2 -A1_0 -A1_1" intLanes=":J5_0_0 :J5_0_1 :J5_2_0 :J5_2_1 :J5_2_2 :J5_5_0 :J5_5_1" shape="76.73,103.97 86.26,102.88 85.80,98.70 85.50,95.61 85.34,93.05 85.27,90.49 85.26,87.38 85.28,83.18 75.68,83.15 75.23,85.35 74.67,86.10 73.89,86.62 72.89,86.91 71.67,86.96 71.05,99.74 74.00,100.33 75.08,100.93 75.89,101.74 76.44,102.75">
        <request index="0" response="0000000" foes="0000000" cont="0"/>
        <request index="1" response="0000000" foes="0000000" cont="0"/>
        <request index="2" response="0000000" foes="1100000" cont="0"/>
        <request index="3" response="0000000" foes="1000000" cont="0"/>
        <request index="4" response="0000000" foes="0000000" cont="0"/>
        <request index="5" response="0000100" foes="0000100" cont="0"/>
        <request index="6" response="0001100" foes="0001100" cont="0"/>
    </junction>
    <junction id="J6" type="priority" x="94.91" y="70.66" incLanes="R1_0 R1_1 R1_2" intLanes=":J6_0_0 :J6_0_1 :J6_0_2" shape="94.91,70.66 90.91,61.93 88.91,63.03 88.29,63.55 87.72,64.13 87.04,64.86 86.11,65.80 92.74,72.73 93.48,71.87 93.72,71.54 93.98,71.25 94.35,70.96">
        <request index="0" response="000" foes="000" cont="0"/>
        <request index="1" response="000" foes="000" cont="0"/>
        <request index="2" response="000" foes="000" cont="0"/>
    </junction>
    <junction id="J7" type="priority" x="121.53" y="65.92" incLanes="-A4_0 -A4_1 R2_0 R2_1 R2_2" intLanes=":J7_0_0 :J7_0_1 :J7_2_0 :J7_2_1 :J7_4_0 :J7_4_1 :J7_4_2" shape="131.84,66.22 132.05,56.51 129.84,55.96 129.07,55.31 128.52,54.41 128.20,53.26 128.11,51.87 115.31,51.70 114.84,53.89 114.28,54.61 113.49,55.10 112.49,55.34 111.28,55.34 110.42,65.13 115.03,64.10 119.22,63.55 123.00,63.49 126.36,63.91 129.31,64.82">
        <request index="0" response="0010000" foes="0010000" cont="0"/>
        <request index="1" response="0110000" foes="0110000" cont="0"/>
        <request index="2" response="0000000" foes="0000000" cont="0"/>
        <request index="3" response="0000000" foes="0000000" cont="0"/>
        <request index="4" response="0000000" foes="0000011" cont="0"/>
        <request index="5" response="0000000" foes="0000010" cont="0"/>
        <request index="6" response="0000000" foes="0000000" cont="0"/>
    </junction>
    <junction id="J8" type="priority" x="141.78" y="73.39" incLanes="R3_0 R3_1 R3_2" intLanes=":J8_0_0 :J8_0_1 :J8_0_2" shape="141.78,73.39 148.56,66.59 148.20,66.24 148.07,66.12 147.93,66.01 147.76,65.87 147.53,65.70">
        <request index="0" response="000" foes="000" cont="0"/>
        <request index="1" response="000" foes="000" cont="0"/>
        <request index="2" response="000" foes="000" cont="0"/>
    </junction>
    <junction id="J9" type="priority" x="154.39" y="93.36" incLanes="A3_0 A3_1 R4_0 R4_1 R4_2" intLanes=":J9_0_0 :J9_0_1 :J9_2_0 :J9_2_1 :J9_4_0 :J9_4_1 :J9_4_2" shape="166.24,98.71 165.08,85.96 163.21,85.80 162.45,85.46 161.80,84.94 161.26,84.24 160.83,83.37 151.87,86.82 152.90,89.58 153.56,91.68 153.88,93.49 153.90,95.32 153.66,97.51 153.19,100.42 162.66,102.02 163.28,100.31 163.81,99.68 164.48,99.20 165.29,98.88">
        <request index="0" response="0010000" foes="0010000" cont="0"/>
        <request index="1" response="0110000" foes="0110000" cont="0"/>
        <request index="2" response="0000000" foes="0000000" cont="0"/>
        <request index="3" response="0000000" foes="0000000" cont="0"/>
        <request index="4" response="0000000" foes="0000011" cont="0"/>
        <request index="5" response="0000000" foes="0000010" cont="0"/>
        <request index="6" response="0000000" foes="0000000" cont="0"/>
    </junction>

    <connection from="-A1" to="R1" fromLane="0" toLane="0" via=":J5_5_0" dir="r" state="m" visibility="9.00"/>
    <connection from="-A1" to="R1" fromLane="1" toLane="1" via=":J5_5_1" dir="r" state="m" visibility="9.00"/>
    <connection from="-A2" to="R7" fromLane="0" toLane="0" via=":J11_0_0" dir="r" state="m" visibility="9.00"/>
    <connection from="-A2" to="R7" fromLane="1" toLane="1" via=":J11_0_1" dir="r" state="m" visibility="9.00"/>
    <connection from="-A4" to="R3" fromLane="0" toLane="0" via=":J7_0_0" dir="r" state="m" visibility="9.00"/>
    <connection from="-A4" to="R3" fromLane="1" toLane="1" via=":J7_0_1" dir="r" state="m" visibility="9.00"/>
    <connection from="A3" to="R5" fromLane="0" toLane="0" via=":J9_0_0" dir="r" state="m" visibility="9.00"/>
    <connection from="A3" to="R5" fromLane="1" toLane="1" via=":J9_0_1" dir="r" state="m" visibility="9.00"/>
    <connection from="R1" to="R2" fromLane="0" toLane="0" via=":J6_0_0" dir="s" state="M"/>
    <connection from="R1" to="R2" fromLane="1" toLane="1" via=":J6_0_1" dir="s" state="M"/>
    <connection from="R1" to="R2" fromLane="2" toLane="2" via=":J6_0_2" dir="s" state="M"/>
    <connection from="R2" to="A4" fromLane="0" toLane="0" via=":J7_2_0" dir="r" state="M"/>
    <connection from="R2" to="A4" fromLane="0" toLane="1" via=":J7_2_1" dir="r" state="M"/>
    <connection from="R2" to="R3" fromLane="0" toLane="0" via=":J7_4_0" dir="s" state="M"/>
    <connection from="R2" to="R3" fromLane="1" toLane="1" via=":J7_4_1" dir="s" state="M"/>
    <connection from="R2" to="R3" fromLane="2" toLane="2" via=":J7_4_2" dir="s" state="M"/>
    <connection from="R3" to="R4" fromLane="0" toLane="0" via=":J8_0_0" dir="s" state="M"/>
    <connection from="R3" to="R4" fromLane="1" toLane="1" via=":J8_0_1" dir="s" state="M"/>
    <connection from="R3" to="R4" fromLane="2" toLane="2" via=":J8_0_2" dir="s" state="M"/>
    <connection from="R4" to="-A3" fromLane="0" toLane="0" via=":J9_2_0" dir="r" state="M"/>
    <connection from="R4" to="-A3" fromLane="0" toLane="1" via=":J9_2_1" dir="r" state="M"/>
    <connection from="R4" to="R5" fromLane="0" toLane="0" via=":J9_4_0" dir="s" state="M"/>
    <connection from="R4" to="R5" fromLane="1" toLane="1" via=":J9_4_1" dir="s" state="M"/>
    <connection from="R4" to="R5" fromLane="2" toLane="2" via=":J9_4_2" dir="s" state="M"/>
    <connection from="R5" to="R6" fromLane="0" toLane="0" via=":J10_0_0" dir="s" state="M"/>
    <connection from="R5" to="R6" fromLane="1" toLane="1" via=":J10_0_1" dir="s" state="M"/>
    <connection from="R5" to="R6" fromLane="2" toLane="2" via=":J10_0_2" dir="s" state="M"/>
    <connection from="R6" to="E2" fromLane="0" toLane="0" via=":J11_2_0" dir="r" state="M"/>
    <connection from="R6" to="E2" fromLane="0" toLane="1" via=":J11_2_1" dir="r" state="M"/>
    <connection from="R6" to="R7" fromLane="0" toLane="0" via=":J11_4_0" dir="s" state="M"/>
    <connection from="R6" to="R7" fromLane="1" toLane="1" via=":J11_4_1" dir="s" state="M"/>
    <connection from="R6" to="R7" fromLane="2" toLane="2" via=":J11_4_2" dir="s" state="M"/>
    <connection from="R7" to="R8" fromLane="0" toLane="0" via=":J12_0_0" dir="s" state="M"/>
    <connection from="R7" to="R8" fromLane="1" toLane="1" via=":J12_0_1" dir="s" state="M"/>
    <connection from="R7" to="R8" fromLane="2" toLane="2" via=":J12_0_2" dir="s" state="M"/>
    <connection from="R8" to="A1" fromLane="0" toLane="0" via=":J5_0_0" dir="r" state="M"/>
    <connection from="R8" to="A1" fromLane="0" toLane="1" via=":J5_0_1" dir="r" state="M"/>
    <connection from="R8" to="R1" fromLane="0" toLane="0" via=":J5_2_0" dir="s" state="M"/>
    <connection from="R8" to="R1" fromLane="1" toLane="1" via=":J5_2_1" dir="s" state="M"/>
    <connection from="R8" to="R1" fromLane="2" toLane="2" via=":J5_2_2" dir="s" state="M"/>

    <connection from=":J10_0" to="R6" fromLane="0" toLane="0" dir="s" state="M"/>
    <connection from=":J10_0" to="R6" fromLane="1" toLane="1" dir="s" state="M"/>
    <connection from=":J10_0" to="R6" fromLane="2" toLane="2" dir="s" state="M"/>
    <connection from=":J11_0" to="R7" fromLane="0" toLane="0" dir="r" state="M"/>
    <connection from=":J11_0" to="R7" fromLane="1" toLane="1" dir="r" state="M"/>
    <connection from=":J11_2" to="E2" fromLane="0" toLane="0" dir="r" state="M"/>
    <connection from=":J11_2" to="E2" fromLane="1" toLane="1" dir="r" state="M"/>
    <connection from=":J11_4" to="R7" fromLane="0" toLane="0" dir="s" state="M"/>
    <connection from=":J11_4" to="R7" fromLane="1" toLane="1" dir="s" state="M"/>
    <connection from=":J11_4" to="R7" fromLane="2" toLane="2" dir="s" state="M"/>
    <connection from=":J12_0" to="R8" fromLane="0" toLane="0" dir="s" state="M"/>
    <connection from=":J12_0" to="R8" fromLane="1" toLane="1" dir="s" state="M"/>
    <connection from=":J12_0" to="R8" fromLane="2" toLane="2" dir="s" state="M"/>
    <connection from=":J5_0" to="A1" fromLane="0" toLane="0" dir="r" state="M"/>
    <connection from=":J5_0" to="A1" fromLane="1" toLane="1" dir="r" state="M"/>
    <connection from=":J5_2" to="R1" fromLane="0" toLane="0" dir="s" state="M"/>
    <connection from=":J5_2" to="R1" fromLane="1" toLane="1" dir="s" state="M"/>
    <connection from=":J5_2" to="R1" fromLane="2" toLane="2" dir="s" state="M"/>
    <connection from=":J5_5" to="R1" fromLane="0" toLane="0" dir="r" state="M"/>
    <connection from=":J5_5" to="R1" fromLane="1" toLane="1" dir="r" state="M"/>
    <connection from=":J6_0" to="R2" fromLane="0" toLane="0" dir="s" state="M"/>
    <connection from=":J6_0" to="R2" fromLane="1" toLane="1" dir="s" state="M"/>
    <connection from=":J6_0" to="R2" fromLane="2" toLane="2" dir="s" state="M"/>
    <connection from=":J7_0" to="R3" fromLane="0" toLane="0" dir="r" state="M"/>
    <connection from=":J7_0" to="R3" fromLane="1" toLane="1" dir="r" state="M"/>
    <connection from=":J7_2" to="A4" fromLane="0" toLane="0" dir="r" state="M"/>
    <connection from=":J7_2" to="A4" fromLane="1" toLane="1" dir="r" state="M"/>
    <connection from=":J7_4" to="R3" fromLane="0" toLane="0" dir="s" state="M"/>
    <connection from=":J7_4" to="R3" fromLane="1" toLane="1" dir="s" state="M"/>
    <connection from=":J7_4" to="R3" fromLane="2" toLane="2" dir="s" state="M"/>
    <connection from=":J8_0" to="R4" fromLane="0" toLane="0" dir="s" state="M"/>
    <connection from=":J8_0" to="R4" fromLane="1" toLane="1" dir="s" state="M"/>
    <connection from=":J8_0" to="R4" fromLane="2" toLane="2" dir="s" state="M"/>
    <connection from=":J9_0" to="R5" fromLane="0" toLane="0" dir="r" state="M"/>
    <connection from=":J9_0" to="R5" fromLane="1" toLane="1" dir="r" state="M"/>
    <connection from=":J9_2" to="-A3" fromLane="0" toLane="0" dir="r" state="M"/>
    <connection from=":J9_2" to="-A3" fromLane="1" toLane="1" dir="r" state="M"/>
    <connection from=":J9_4" to="R5" fromLane="0" toLane="0" dir="s" state="M"/>
    <connection from=":J9_4" to="R5" fromLane="1" toLane="1" dir="s" state="M"/>
    <connection from=":J9_4" to="R5" fromLane="2" toLane="2" dir="s" state="M"/>

    <roundabout nodes="J10 J11 J12 J5 J6 J7 J8 J9" edges="R1 R2 R3 R4 R5 R6 R7 R8"/>

</net>
