<?xml version="1.0" encoding="UTF-8"?>

<!-- generated on 2024-03-11 22:34:52 by Eclipse SUMO netconvert Version 1.10.0
<configuration xmlns:xsi="http://www.w3.org/2001/XMLSchema-instance" xsi:noNamespaceSchemaLocation="http://sumo.dlr.de/xsd/netconvertConfiguration.xsd">

    <input>
        <sumo-net-file value="Scenario/LeftTurnCopy/map.net.xml"/>
    </input>

    <output>
        <output-file value="Scenario/LeftTurnCopy/shifted_map-AUTOGEN.net.xml"/>
    </output>

    <processing>
        <geometry.min-radius.fix.railways value="false"/>
        <geometry.max-grade.fix value="false"/>
        <offset.disable-normalization value="false"/>
        <lefthand value="false"/>
    </processing>

    <junctions>
        <no-turnarounds value="true"/>
        <junctions.corner-detail value="5"/>
        <junctions.limit-turn-speed value="5.5"/>
        <rectangular-lane-cut value="false"/>
    </junctions>

    <pedestrian>
        <walkingareas value="false"/>
    </pedestrian>

    <report>
        <aggregate-warnings value="5"/>
    </report>

    <random_number>
        <seed value="1144897499"/>
    </random_number>

</configuration>
-->

<net version="1.9" junctionCornerDetail="5" limitTurnSpeed="5.50" xmlns:xsi="http://www.w3.org/2001/XMLSchema-instance" xsi:noNamespaceSchemaLocation="http://sumo.dlr.de/xsd/net_file.xsd">

    <location netOffset="50.00,-60.00" convBoundary="0.00,0.00,100.00,80.00" origBoundary="-10000000000.00,-10000000000.00,10000000000.00,10000000000.00" projParameter="!"/>

    <edge id=":J1_0" function="internal">
        <lane id=":J1_0_0" index="0" speed="6.51" length="9.03" shape="48.40,50.40 48.05,47.95 47.00,46.20 45.25,45.15 42.80,44.80"/>
    </edge>
    <edge id=":J1_1" function="internal">
        <lane id=":J1_1_0" index="0" speed="13.89" length="20.80" shape="48.40,50.40 48.40,29.60"/>
    </edge>
    <edge id=":J1_2" function="internal">
        <lane id=":J1_2_0" index="0" speed="8.45" length="5.89" shape="48.40,50.40 49.16,46.43 50.00,44.79"/>
    </edge>
    <edge id=":J1_15" function="internal">
        <lane id=":J1_15_0" index="0" speed="8.45" length="10.05" shape="50.00,44.79 51.15,42.54 53.97,39.58 57.20,38.40"/>
    </edge>
    <edge id=":J1_3" function="internal">
        <lane id=":J1_3_0" index="0" speed="6.51" length="9.03" shape="57.20,44.80 54.75,45.15 53.00,46.20 51.95,47.95 51.60,50.40"/>
    </edge>
    <edge id=":J1_4" function="internal">
        <lane id=":J1_4_0" index="0" speed="13.89" length="14.40" shape="57.20,44.80 42.80,44.80"/>
        <lane id=":J1_4_1" index="1" speed="13.89" length="14.40" shape="57.20,41.60 42.80,41.60"/>
    </edge>
    <edge id=":J1_6" function="internal">
        <lane id=":J1_6_0" index="0" speed="8.67" length="5.26" shape="57.20,41.60 53.35,40.85 52.31,40.00"/>
    </edge>
    <edge id=":J1_16" function="internal">
        <lane id=":J1_16_0" index="0" speed="8.67" length="11.59" shape="52.31,40.00 50.60,38.60 48.95,34.85 48.40,29.60"/>
    </edge>
    <edge id=":J1_7" function="internal">
        <lane id=":J1_7_0" index="0" speed="6.51" length="9.03" shape="51.60,29.60 51.95,32.05 53.00,33.80 54.75,34.85 57.20,35.20"/>
    </edge>
    <edge id=":J1_8" function="internal">
        <lane id=":J1_8_0" index="0" speed="13.89" length="20.80" shape="51.60,29.60 51.60,50.40"/>
    </edge>
    <edge id=":J1_9" function="internal">
        <lane id=":J1_9_0" index="0" speed="9.09" length="7.16" shape="51.60,29.60 50.84,34.44 50.00,36.54"/>
        <lane id=":J1_9_1" index="1" speed="8.67" length="7.89" shape="51.60,29.60 51.05,34.85 50.00,37.24"/>
    </edge>
    <edge id=":J1_17" function="internal">
        <lane id=":J1_17_0" index="0" speed="9.09" length="11.44" shape="50.00,36.54 48.85,39.40 46.03,43.25 42.80,44.80"/>
    </edge>
    <edge id=":J1_18" function="internal">
        <lane id=":J1_18_0" index="0" speed="8.67" length="8.97" shape="50.00,37.24 49.40,38.60 46.65,40.85 42.80,41.60"/>
    </edge>
    <edge id=":J1_11" function="internal">
        <lane id=":J1_11_0" index="0" speed="6.51" length="9.03" shape="42.80,35.20 45.25,34.85 47.00,33.80 48.05,32.05 48.40,29.60"/>
    </edge>
    <edge id=":J1_12" function="internal">
        <lane id=":J1_12_0" index="0" speed="13.89" length="14.40" shape="42.80,35.20 57.20,35.20"/>
        <lane id=":J1_12_1" index="1" speed="13.89" length="14.40" shape="42.80,38.40 57.20,38.40"/>
    </edge>
    <edge id=":J1_14" function="internal">
        <lane id=":J1_14_0" index="0" speed="8.67" length="5.26" shape="42.80,38.40 46.65,39.15 47.69,40.00"/>
    </edge>
    <edge id=":J1_19" function="internal">
        <lane id=":J1_19_0" index="0" speed="8.67" length="11.59" shape="47.69,40.00 49.40,41.40 51.05,45.15 51.60,50.40"/>
    </edge>

    <edge id="-E0" from="J1" to="J0" priority="-1">
        <lane id="-E0_0" index="0" speed="13.89" length="29.60" shape="48.40,29.60 48.40,0.00"/>
    </edge>
    <edge id="-E1" from="J2" to="J1" priority="-1">
        <lane id="-E1_0" index="0" speed="13.89" length="42.80" shape="0.00,35.20 42.80,35.20"/>
        <lane id="-E1_1" index="1" speed="13.89" length="42.80" shape="0.00,38.40 42.80,38.40"/>
    </edge>
    <edge id="-E3" from="J4" to="J1" priority="-1">
        <lane id="-E3_0" index="0" speed="13.89" length="29.60" shape="48.40,80.00 48.40,50.40"/>
    </edge>
    <edge id="-E4" from="J1" to="J5" priority="-1">
        <lane id="-E4_0" index="0" speed="13.89" length="42.80" shape="57.20,35.20 100.00,35.20"/>
        <lane id="-E4_1" index="1" speed="13.89" length="42.80" shape="57.20,38.40 100.00,38.40"/>
    </edge>
    <edge id="E0" from="J0" to="J1" priority="-1">
        <lane id="E0_0" index="0" speed="13.89" length="29.60" shape="51.60,0.00 51.60,29.60"/>
    </edge>
    <edge id="E1" from="J1" to="J2" priority="-1">
        <lane id="E1_0" index="0" speed="13.89" length="42.80" shape="42.80,44.80 0.00,44.80"/>
        <lane id="E1_1" index="1" speed="13.89" length="42.80" shape="42.80,41.60 0.00,41.60"/>
    </edge>
    <edge id="E3" from="J1" to="J4" priority="-1">
        <lane id="E3_0" index="0" speed="13.89" length="29.60" shape="51.60,50.40 51.60,80.00"/>
    </edge>
    <edge id="E4" from="J5" to="J1" priority="-1">
        <lane id="E4_0" index="0" speed="13.89" length="42.80" shape="100.00,44.80 57.20,44.80"/>
        <lane id="E4_1" index="1" speed="13.89" length="42.80" shape="100.00,41.60 57.20,41.60"/>
    </edge>

    <tlLogic id="J1" type="static" programID="0" offset="0">
        <phase duration="42" state="rrrGGGgrrrrGGGg"/>
        <phase duration="3"  state="rrryyyyrrrryyyy"/>
        <phase duration="42" state="GGgrrrrGGggrrrr"/>
        <phase duration="3"  state="yyyrrrryyyyrrrr"/>
    </tlLogic>
    <tlLogic id="J1" type="static" programID="1" offset="0">
        <phase duration="42" state="rrrGGGgrrrrGGGg"/>
        <phase duration="3"  state="rrryyyyrrrryyyy"/>
        <phase duration="42" state="GGgrrrrGGggrrrr"/>
        <phase duration="3"  state="yyyrrrryyyyrrrr"/>
    </tlLogic>

    <junction id="J0" type="dead_end" x="50.00" y="0.00" incLanes="-E0_0" intLanes="" shape="50.00,0.00 46.80,0.00 50.00,0.00"/>
    <junction id="J1" type="traffic_light" x="50.00" y="40.00" incLanes="-E3_0 E4_0 E4_1 E0_0 -E1_0 -E1_1" intLanes=":J1_0_0 :J1_1_0 :J1_15_0 :J1_3_0 :J1_4_0 :J1_4_1 :J1_16_0 :J1_7_0 :J1_8_0 :J1_17_0 :J1_18_0 :J1_11_0 :J1_12_0 :J1_12_1 :J1_19_0" shape="46.80,50.40 53.20,50.40 53.64,48.18 54.20,47.40 54.98,46.84 55.98,46.51 57.20,46.40 57.20,33.60 54.98,33.16 54.20,32.60 53.64,31.82 53.31,30.82 53.20,29.60 46.80,29.60 46.36,31.82 45.80,32.60 45.02,33.16 44.02,33.49 42.80,33.60 42.80,46.40 45.02,46.84 45.80,47.40 46.36,48.18 46.69,49.18">
        <request index="0"  response="000000000110000" foes="000011000110000" cont="0"/>
        <request index="1"  response="111100001110000" foes="111111001110000" cont="0"/>
        <request index="2"  response="111000101110000" foes="111000101110000" cont="1"/>
        <request index="3"  response="000000000000000" foes="100000100000000" cont="0"/>
        <request index="4"  response="000011000000100" foes="100011100000111" cont="0"/>
        <request index="5"  response="000011000000100" foes="100011100000111" cont="0"/>
        <request index="6"  response="011111000000100" foes="011111100000110" cont="1"/>
        <request index="7"  response="011000000000000" foes="011000000000000" cont="0"/>
        <request index="8"  response="111000001111000" foes="111000001111100" cont="0"/>
        <request index="9"  response="111000001110011" foes="111000001110011" cont="1"/>
        <request index="10" response="111000001110011" foes="111000001110011" cont="1"/>
        <request index="11" response="000000000000000" foes="000000001000010" cont="0"/>
        <request index="12" response="000011000000100" foes="000011111000110" cont="0"/>
        <request index="13" response="000011000000100" foes="000011111000110" cont="0"/>
        <request index="14" response="000011000111100" foes="000011100111110" cont="1"/>
    </junction>
    <junction id="J2" type="dead_end" x="0.00" y="40.00" incLanes="E1_0 E1_1" intLanes="" shape="0.00,40.00 0.00,46.40 0.00,40.00"/>
    <junction id="J4" type="dead_end" x="50.00" y="80.00" incLanes="E3_0" intLanes="" shape="50.00,80.00 53.20,80.00 50.00,80.00"/>
    <junction id="J5" type="dead_end" x="100.00" y="40.00" incLanes="-E4_0 -E4_1" intLanes="" shape="100.00,40.00 100.00,33.60 100.00,40.00"/>

    <junction id=":J1_15_0" type="internal" x="50.00" y="44.79" incLanes=":J1_2_0 E0_0" intLanes=":J1_4_0 :J1_4_1 :J1_6_0 :J1_7_0 :J1_8_0 :J1_12_0 :J1_12_1 :J1_14_0"/>
    <junction id=":J1_16_0" type="internal" x="52.31" y="40.00" incLanes=":J1_6_0 -E1_0 -E1_1" intLanes=":J1_1_0 :J1_2_0 :J1_8_0 :J1_9_0 :J1_9_1 :J1_11_0 :J1_12_0 :J1_12_1"/>
    <junction id=":J1_17_0" type="internal" x="50.00" y="36.54" incLanes=":J1_9_0 -E3_0" intLanes=":J1_0_0 :J1_1_0 :J1_4_0 :J1_4_1 :J1_6_0 :J1_12_0 :J1_12_1 :J1_14_0"/>
    <junction id=":J1_18_0" type="internal" x="50.00" y="37.24" incLanes=":J1_9_1 -E3_0" intLanes=":J1_0_0 :J1_1_0 :J1_4_0 :J1_4_1 :J1_6_0 :J1_12_0 :J1_12_1 :J1_14_0"/>
    <junction id=":J1_19_0" type="internal" x="47.69" y="40.00" incLanes=":J1_14_0 E4_0 E4_1" intLanes=":J1_1_0 :J1_2_0 :J1_3_0 :J1_4_0 :J1_4_1 :J1_8_0 :J1_9_0 :J1_9_1"/>

    <connection from="-E1" to="-E0" fromLane="0" toLane="0" via=":J1_11_0" tl="J1" linkIndex="11" dir="r" state="O"/>
    <connection from="-E1" to="-E4" fromLane="0" toLane="0" via=":J1_12_0" tl="J1" linkIndex="12" dir="s" state="O"/>
    <connection from="-E1" to="-E4" fromLane="1" toLane="1" via=":J1_12_1" tl="J1" linkIndex="13" dir="s" state="O"/>
    <connection from="-E1" to="E3" fromLane="1" toLane="0" via=":J1_14_0" tl="J1" linkIndex="14" dir="l" state="o"/>
    <connection from="-E3" to="E1" fromLane="0" toLane="0" via=":J1_0_0" tl="J1" linkIndex="0" dir="r" state="o"/>
    <connection from="-E3" to="-E0" fromLane="0" toLane="0" via=":J1_1_0" tl="J1" linkIndex="1" dir="s" state="o"/>
    <connection from="-E3" to="-E4" fromLane="0" toLane="1" via=":J1_2_0" tl="J1" linkIndex="2" dir="l" state="o"/>
    <connection from="E0" to="-E4" fromLane="0" toLane="0" via=":J1_7_0" tl="J1" linkIndex="7" dir="r" state="o"/>
    <connection from="E0" to="E3" fromLane="0" toLane="0" via=":J1_8_0" tl="J1" linkIndex="8" dir="s" state="o"/>
    <connection from="E0" to="E1" fromLane="0" toLane="0" via=":J1_9_0" tl="J1" linkIndex="9" dir="l" state="o"/>
    <connection from="E0" to="E1" fromLane="0" toLane="1" via=":J1_9_1" tl="J1" linkIndex="10" dir="l" state="o"/>
    <connection from="E4" to="E3" fromLane="0" toLane="0" via=":J1_3_0" tl="J1" linkIndex="3" dir="r" state="O"/>
    <connection from="E4" to="E1" fromLane="0" toLane="0" via=":J1_4_0" tl="J1" linkIndex="4" dir="s" state="O"/>
    <connection from="E4" to="E1" fromLane="1" toLane="1" via=":J1_4_1" tl="J1" linkIndex="5" dir="s" state="O"/>
    <connection from="E4" to="-E0" fromLane="1" toLane="0" via=":J1_6_0" tl="J1" linkIndex="6" dir="l" state="o"/>

    <connection from=":J1_0" to="E1" fromLane="0" toLane="0" dir="r" state="M"/>
    <connection from=":J1_1" to="-E0" fromLane="0" toLane="0" dir="s" state="M"/>
    <connection from=":J1_2" to="-E4" fromLane="0" toLane="1" via=":J1_15_0" dir="l" state="m"/>
    <connection from=":J1_15" to="-E4" fromLane="0" toLane="1" dir="l" state="M"/>
    <connection from=":J1_3" to="E3" fromLane="0" toLane="0" dir="r" state="M"/>
    <connection from=":J1_4" to="E1" fromLane="0" toLane="0" dir="s" state="M"/>
    <connection from=":J1_4" to="E1" fromLane="1" toLane="1" dir="s" state="M"/>
    <connection from=":J1_6" to="-E0" fromLane="0" toLane="0" via=":J1_16_0" dir="l" state="m"/>
    <connection from=":J1_16" to="-E0" fromLane="0" toLane="0" dir="l" state="M"/>
    <connection from=":J1_7" to="-E4" fromLane="0" toLane="0" dir="r" state="M"/>
    <connection from=":J1_8" to="E3" fromLane="0" toLane="0" dir="s" state="M"/>
    <connection from=":J1_9" to="E1" fromLane="0" toLane="0" via=":J1_17_0" dir="l" state="m"/>
    <connection from=":J1_17" to="E1" fromLane="0" toLane="0" dir="l" state="M"/>
    <connection from=":J1_9" to="E1" fromLane="1" toLane="1" via=":J1_18_0" dir="l" state="m"/>
    <connection from=":J1_18" to="E1" fromLane="0" toLane="1" dir="l" state="M"/>
    <connection from=":J1_11" to="-E0" fromLane="0" toLane="0" dir="r" state="M"/>
    <connection from=":J1_12" to="-E4" fromLane="0" toLane="0" dir="s" state="M"/>
    <connection from=":J1_12" to="-E4" fromLane="1" toLane="1" dir="s" state="M"/>
    <connection from=":J1_14" to="E3" fromLane="0" toLane="0" via=":J1_19_0" dir="l" state="m"/>
    <connection from=":J1_19" to="E3" fromLane="0" toLane="0" dir="l" state="M"/>

</net>
